
              Welcome to ANSYS Fluent Release 16.0

              Copyright 2014 ANSYS, Inc.. All Rights Reserved.
              Unauthorized use, distribution or duplication is prohibited.
              This product is subject to U.S. laws governing export and re-export.
              For full Legal Notice, see documentation.

Build Time: Dec 22 2014 11:28:36  Build Id: 10427
 

     --------------------------------------------------------------
     This is an academic version of ANSYS FLUENT. Usage of this product
     license is limited to the terms and conditions specified in your ANSYS
     license form, additional terms section.
     --------------------------------------------------------------
Host spawning Node 0 on machine "winstroth-W7" (win64).
WARNING: No cached password or password provided.
         use '-pass' or '-cache' to provide password
Host 0 -- ip 130.75.69.195 -- ranks 0 - 3

 host | 0
======|======
    0 : SHM

 Prot -  All Intra-node communication is: SHM


-------------------------------------------------------------------------------
ID    Hostname      Core  O.S.         PID   Vendor                    
-------------------------------------------------------------------------------
n3    winstroth-W7  4/8  Windows-x64  5776  Intel(R) Core(TM) i7-2600 
n2    winstroth-W7  3/8  Windows-x64  7516  Intel(R) Core(TM) i7-2600 
n1    winstroth-W7  2/8  Windows-x64  4908  Intel(R) Core(TM) i7-2600 
n0*   winstroth-W7  1/8  Windows-x64  2296  Intel(R) Core(TM) i7-2600 
host  winstroth-W7       Windows-x64  2868  Intel(R) Core(TM) i7-2600 

MPI Option Selected: pcmpi
Selected system interconnect: default
-------------------------------------------------------------------------------

Cleanup script file is H:\home\Desktop\fluent_cluster\cleanup-fluent-winstroth-W7-2868.bat

Reading journal file H:\home\Desktop\fluent_cluster\aoa_p08_sst.jou...

> ;Input simulation parameters
(define aoa 8.0)
aoa
 ;Angle of attack in deg
(define mach 0.082)
mach
 ;Mach number
(define temperatur 288.15)
temperatur
 ;Temperatur
/file/read-case "r22000_norm"Multicore SMT processors detected. Processor affinity set!

Reading "r22000_norm.cas"...
Buffering for file scan...

   86176 nodes.
   85504 quadrilateral cells, zone  2.
  170336 2D interior faces, zone  3.
     432 2D wall faces, zone  4.
     592 2D pressure-far-field faces, zone  5.
     320 2D pressure-outlet faces, zone  6.

Building...
     mesh
	auto partitioning mesh by Metis (fast),
	distributing mesh
		parts....,
		faces....,
		nodes....,
		cells....,
     materials,
     interface,
     domains,
     zones,
	outlet
	inlet
	airfoil
	interior-fluid
	fluid
     parallel,
Done.
 ;Path to fluent case file without .cas extension

;Define constants
(define pi 3.14159265359)
pi


> 
adapt/                  file/                   report/
define/                 mesh/                   solve/
display/                parallel/               surface/
exit                    plot/                   views/

> ;Get xComponent and yComponent based on angle of attack
(define xComp (cos (* aoa (/ pi 180.0) ) ) )
xcomp


> (define yComp (sin (* aoa (/ pi 180.0) ) ) )
ycomp


> 
adapt/                  file/                   report/
define/                 mesh/                   solve/
display/                parallel/               surface/
exit                    plot/                   views/

> ;Start of journal
/mesh/reorder/reorder-domain 
>> Reordering domain using Reverse Cuthill-McKee method:
      zones, cells, faces, done.

   Bandwidth reduction = 18317/164 = 111.69  
   Done.

> /define/materials/change-create air air air is a fluid
yes 
Density
methods: (constant ideal-gas incompressible-ideal-gas real-gas-soave-redlich-kwong real-gas-peng-robinson real-gas-aungier-redlich-kwong real-gas-redlich-kwong boussinesq piecewise-linear piecewise-polynomial polynomial compressible-liquid user-defined)
ideal-gas no data required.

no no no no no no 
Note: Enabling energy equation as required by material density method.


> /define/models/energy? yes yes no

> 
adapt/                  file/                   report/
define/                 mesh/                   solve/
display/                parallel/               surface/
exit                    plot/                   views/

> ;For kw-sst model uncomment below
/define/models/viscous/kw-sst? yes

> /define/boundary-conditions/pressure-far-field (inlet)
inlet no 0. no (+ mach) no (+ temperatur) no (+ xComp) no (+ yComp) no no yes 0.1 10 

> /define/boundary-conditions/pressure-outlet (outlet)
outlet no 0. no (+ temperatur) no yes no no yes 0.1 10 no no

> /solve/monitors/residual/check-convergence? no no no no no no

> 
adapt/                  file/                   report/
define/                 mesh/                   solve/
display/                parallel/               surface/
exit                    plot/                   views/

> ; Operating conditions and reference values
/define/operating-conditions/operating-pressure 101325. 

> /report/reference-values/compute/pressure-far-field (inlet)
inlet 

> /report/reference-values/area 1. 

> /report/reference-values/length 1. 

> 
adapt/                  file/                   report/
define/                 mesh/                   solve/
display/                parallel/               surface/
exit                    plot/                   views/

> ; Setup of Solution Methods and Controls
/solve/set/discretization-scheme/density 1 

> /solve/set/discretization-scheme/pressure 12 

> /solve/set/discretization-scheme/mom 1 

> /solve/set/discretization-scheme/k 1 

> /solve/set/discretization-scheme/omega 1 

> /solve/set/gradient-scheme  Options:
 Green-Gauss Cell-Based 
 Green-Gauss Node-Based 
 Least-Squares Cell-Based Default 
no yes 
 Least-Squares Cell-Based will be used

> /solve/set/discretization-scheme/temperature 1 

> /solve/set/number-of-iterations 5000 

> /solve/set/numerics no yes no no no 1. 

> /solve/set/p-v-coupling 24 

> /solve/set/p-v-controls 200. 0.5 0.5 

> 
adapt/                  file/                   report/
define/                 mesh/                   solve/
display/                parallel/               surface/
exit                    plot/                   views/

> ; Define monitors
/solve/monitors/force/set-lift-monitor cl-1 yes airfoil () yes yes "aoa_p08.cl" yes 2 no (- yComp) (+ xComp) 

> /solve/monitors/force/set-drag-monitor cd-1 yes airfoil () yes yes "aoa_p08.cd" yes 3 no (+ xComp) (+ yComp) 

> /solve/monitors/force/set-moment-monitor cm-1 yes airfoil () yes yes "aoa_p08.cm" yes 4 no 0.25 0 0 0 1

> 
adapt/                  file/                   report/
define/                 mesh/                   solve/
display/                parallel/               surface/
exit                    plot/                   views/

> ; Convergence Monitors
/solve/monitors/convergence/add-edit (cd-1 cl-1 cm-1)
cd-1 Adding cd-1
0.0001 500 25 yes no 

> /solve/monitors/convergence/add-edit (cd-1 cl-1 cm-1)
cl-1 Adding cl-1
0.0001 500 25 yes no 

> 
adapt/                  file/                   report/
define/                 mesh/                   solve/
display/                parallel/               surface/
exit                    plot/                   views/

> ; Initialize solution
/solve/initialize/compute-defaults/pressure-far-field (inlet)
inlet 

> /solve/initialize/list-defaults      phase: mixture
                     Gauge Pressure: 0
                         X Velocity: 27.621962
                         Y Velocity: 3.8820136
           Turbulent Kinetic Energy: 0.0011670642
          Specific Dissipation Rate: 7.9899863
                        Temperature: 288.15


> /solve/initialize/initialize-flow 

> 
adapt/                  file/                   report/
define/                 mesh/                   solve/
display/                parallel/               surface/
exit                    plot/                   views/

> ; Set batch options
/file/set-batch-options no yes yes no

> 
adapt/                  file/                   report/
define/                 mesh/                   solve/
display/                parallel/               surface/
exit                    plot/                   views/

> ;/solve/iterate 5000 

adapt/                  file/                   report/
define/                 mesh/                   solve/
display/                parallel/               surface/
exit                    plot/                   views/

> ; Save results
;/file/write-case-data "aoa_p08_res.cas"

> 
  iter  continuity  x-velocity  y-velocity      energy           k       omega        Cm-1    cl-1-res        Cl-1    cd-1-res        Cd-1     time/iter
     1  1.0000e+00  7.5104e-06  3.8470e-06  7.7983e-08  4.2986e+00  5.0227e+01  1.6899e-01  0.0000e+00  5.7991e-01  0.0000e+00  7.1773e-01  1:23:19 4999
     2  1.0000e+00  1.9766e-05  2.0670e-05  7.4031e-08  5.2577e-01  4.6589e-01  1.1548e-01  1.2042e-01  6.5931e-01  4.5619e-01  4.9288e-01  1:23:18 4998
     3  1.0000e+00  1.9447e-05  2.4912e-05  7.6336e-08  3.4038e-01  6.7812e-02  1.2207e-01  2.1137e-01  8.3602e-01  6.5827e-01  2.9723e-01  1:06:38 4997
     4  1.0000e+00  1.7871e-05  3.9947e-05  1.0150e-07  1.3940e-01  5.5516e-02  1.2646e-01  1.3759e-01  9.6940e-01  6.9852e-01  1.7499e-01  1:09:57 4996
     5  1.0000e+00  1.7544e-05  7.6157e-05  1.5953e-07  4.4277e-02  2.2672e-02  1.2908e-01  9.6087e-02  1.0725e+00  5.4622e-01  1.1317e-01  0:55:57 4995
     6  1.6029e+00  2.1822e-05  1.3006e-04  2.8430e-07  1.5977e-02  1.9101e-02  1.3234e-01  6.8106e-02  1.1508e+00  4.2786e-01  7.9262e-02  0:44:45 4994
     7  2.7671e+00  3.1773e-05  2.4344e-04  7.7967e-07  7.9420e-03  1.1640e-02  1.3776e-01  5.0658e-02  1.2122e+00  3.0739e-01  6.0626e-02  0:52:26 4993
     8  6.6528e+00  6.9865e-05  7.2980e-04  2.4779e-06  5.8431e-03  7.4030e-03  1.4548e-01  5.2316e-02  1.2792e+00  1.8562e-01  5.1134e-02  0:41:56 4992
     9  9.9581e+00  1.5660e-04  1.1846e-03  8.1891e-06  5.2518e-03  5.1539e-03  1.5385e-01  3.8576e-02  1.3305e+00  1.4706e-01  4.4579e-02  0:33:33 4991
    10  1.8004e+01  4.3255e-04  2.3577e-03  3.2661e-05  6.8070e-03  3.6841e-03  1.6449e-01  8.0170e-03  1.3412e+00  2.5645e-02  4.5752e-02  0:43:28 4990

 reversed flow in 1 faces on pressure-outlet 6. 
    11  2.6224e+01  1.5047e-03  5.5290e-03  3.0709e-05  6.9026e-03  3.5858e-03  1.7833e-01  8.0888e-03  1.3522e+00  1.4124e-01  5.3277e-02  0:34:46 4989
  iter  continuity  x-velocity  y-velocity      energy           k       omega        Cm-1    cl-1-res        Cl-1    cd-1-res        Cd-1     time/iter
    12  3.0680e+01  1.1498e-03  5.5162e-03  1.5919e-04  1.1724e-02  3.4222e-03  1.9515e-01  9.2561e-03  1.3648e+00  1.5262e-01  6.2873e-02  0:27:48 4988

 reversed flow in 1 faces on pressure-outlet 6. 
    13  5.4577e+01  4.2362e-03  1.6393e-02  1.0356e-04  1.5586e-02  3.2457e-03  2.0935e-01  4.6332e-02  1.3044e+00  1.9417e-01  7.8022e-02  0:38:52 4987

 reversed flow in 1 faces on pressure-outlet 6. 
    14  7.8502e+01  3.0437e-03  1.6364e-02  1.7802e-04  1.9923e-02  4.0413e-03  2.2378e-01  1.8519e-02  1.2807e+00  2.4478e-01  1.0331e-01  0:31:05 4986

 reversed flow in 3 faces on pressure-outlet 6. 
    15  6.6061e+01  5.4983e-03  2.2232e-02  9.9040e-05  1.9516e-02  4.8437e-03  2.0165e-01  7.9898e-02  1.1859e+00  1.4223e-02  1.0186e-01  0:41:29 4985

 reversed flow in 1 faces on pressure-outlet 6. 
    16  7.3088e+01  4.9588e-03  1.7571e-02  1.4086e-04  2.7126e-02  6.4328e-03  1.3953e-01  2.3212e-01  9.6249e-01  4.1219e-01  7.2130e-02  0:33:11 4984

 reversed flow in 1 faces on pressure-outlet 6. 
    17  6.3653e+01  7.2932e-03  2.0626e-02  1.5800e-04  2.2704e-02  5.1150e-03  8.6840e-02  3.5267e-01  7.1155e-01  3.2344e-01  5.4502e-02  0:26:32 4983
    18  8.3463e+01  6.1671e-03  2.2650e-02  1.7625e-04  2.2491e-02  4.0225e-03  5.6073e-02  1.5924e-01  6.1381e-01  5.8937e-02  5.1468e-02  0:37:50 4982
    19  7.3456e+01  6.9563e-03  2.3793e-02  1.5443e-04  2.5920e-02  4.9911e-03  2.6142e-02  6.8258e-01  3.6480e-01  2.1795e-02  5.2615e-02  0:30:16 4981

 reversed flow in 1 faces on pressure-outlet 6. 
    20  7.6769e+01  6.0454e-03  2.2469e-02  1.3134e-04  2.6624e-02  9.7507e-03  6.0410e-03  1.7286e+00  1.3370e-01  5.0829e-02  5.0070e-02  0:24:12 4980

 reversed flow in 2 faces on pressure-outlet 6. 
    21  9.7294e+01  6.7815e-03  2.6964e-02  2.2326e-04  3.4477e-02  1.0388e-02 -6.7461e-03  4.4465e+00  2.4547e-02  9.3080e-02  4.5807e-02  0:35:57 4979

 reversed flow in 2 faces on pressure-outlet 6. 
    22  8.1026e+01  8.0079e-03  2.8959e-02  3.6270e-04  4.6160e-02  6.0031e-03  7.6733e-04  6.8133e-01  7.7031e-02  4.1055e-02  4.7768e-02  0:28:45 4978
  iter  continuity  x-velocity  y-velocity      energy           k       omega        Cm-1    cl-1-res        Cl-1    cd-1-res        Cd-1     time/iter
    23  9.0085e+01  1.2099e-02  3.9269e-02  2.6415e-04  3.7282e-02  3.3920e-02 -2.2957e-03  4.2731e+00 -2.3535e-02  6.0271e-02  5.0831e-02  0:23:00 4977

 reversed flow in 2 faces on pressure-outlet 6. 
    24  1.1963e+02  9.6670e-03  3.3505e-02  3.7595e-04  5.2945e-02  3.2302e-02 -2.6706e-02  9.2737e-01 -3.2402e-01  7.2271e-01  2.9507e-02  0:34:59 4976

 reversed flow in 10 faces on pressure-outlet 6. 
    25  1.1162e+02  1.4846e-02  4.1252e-02  3.2784e-04  4.6571e-02  2.7976e-02 -2.3061e-02  1.1507e-01 -3.6616e-01  2.6649e+00  8.0512e-03  0:27:59 4975

 reversed flow in 2 faces on pressure-outlet 6. 
    26  1.1354e+02  1.1257e-02  3.4796e-02  3.9878e-04  4.2618e-02  4.6630e-02  2.4129e-02  2.0209e+00  3.5866e-01  9.3274e-01  1.1971e-01  0:22:23 4974
    27  1.3144e+02  1.1498e-02  3.1909e-02  4.8727e-04  7.3116e-02  4.6654e-02  1.3011e-02  5.4327e-03  3.5672e-01  2.6739e-01  9.4451e-02  0:34:29 4973

 reversed flow in 5 faces on pressure-outlet 6. 
    28  1.3134e+02  2.2360e-02  5.5067e-02  4.3589e-04  9.6878e-02  5.0518e-02  2.9859e-02  3.2963e-01  5.3212e-01  7.4846e-02  8.7874e-02  0:27:35 4972

 reversed flow in 3 faces on pressure-outlet 6. 
    29  1.3633e+02  2.5076e-02  7.2103e-02  4.7008e-04  5.7704e-02  4.0885e-02  5.6939e-02  1.9319e-01  4.4596e-01  3.7110e-01  1.3973e-01  0:22:03 4971

 reversed flow in 6 faces on pressure-outlet 6. 
    30  1.7783e+02  1.6846e-02  4.4918e-02  4.5736e-04  7.0831e-02  3.7297e-02 -5.7856e-03  1.2921e+01 -3.7410e-02  3.6993e-01  1.0199e-01  0:17:39 4970
    31  1.5098e+02  1.7356e-02  4.6425e-02  1.2255e-03  6.9421e-02  5.4344e-02  2.6039e-02  1.0438e+00  8.5394e-01  3.1540e-01  1.4898e-01  0:30:40 4969

 reversed flow in 17 faces on pressure-outlet 6. 
    32  2.2332e+02  3.5767e-02  7.1075e-02  8.3330e-04  1.4427e-01  6.4178e-02  2.1547e-02  1.3535e-01  9.8761e-01  1.3549e+02  1.0916e-03  0:24:32 4968

 reversed flow in 4 faces on pressure-outlet 6. 
    33  1.9393e+02  3.3832e-02  8.3821e-02  3.4578e-03  1.4488e-01  5.3823e-02 -4.5813e-03  5.3864e-02  9.3713e-01  1.0070e+00 -1.5672e-01  0:19:37 4967

 reversed flow in 1 faces on pressure-outlet 6. 
  iter  continuity  x-velocity  y-velocity      energy           k       omega        Cm-1    cl-1-res        Cl-1    cd-1-res        Cd-1     time/iter
    34  2.5516e+02  7.8744e-02  1.1480e-01  1.2821e-03  1.0294e-01  5.2210e-02 -1.8602e-02  1.0452e+00  4.5821e-01  3.5635e-01 -2.4348e-01  0:32:15 4966

 reversed flow in 2 faces on pressure-outlet 6. 
    35  2.3391e+02  5.1409e-02  8.5238e-02  1.0257e-03  6.9699e-02  6.5238e-02  1.0016e-01  3.5676e-01  7.1235e-01  2.2247e+00 -7.5506e-02  0:25:48 4965

 reversed flow in 6 faces on pressure-outlet 6. 
    36  2.9733e+02  3.3416e-02  5.5882e-02  7.4673e-04  7.6983e-02  5.2959e-02 -7.7335e-03  5.0533e+00 -1.7574e-01  3.2058e+00  3.4231e-02  0:20:38 4964

 reversed flow in 243 faces on pressure-outlet 6. 
    37  2.1472e+02  2.0389e-02  5.2540e-02  1.0386e-03  9.5182e-02  5.3246e-02 -4.2858e-02  2.3530e-01 -1.4227e-01  9.2600e-02  3.1330e-02  0:33:03 4963

 reversed flow in 5 faces on pressure-outlet 6. 
    38  2.5193e+02  4.4056e-02  8.5849e-02  8.5892e-04  8.5039e-02  6.9218e-02  2.3254e-02  1.3047e+00  4.6697e-01  1.8474e-01  2.6444e-02  0:26:26 4962

 reversed flow in 4 faces on pressure-outlet 6. 
    39  2.7058e+02  3.6031e-02  7.2166e-02  9.0131e-04  9.3802e-02  6.4789e-02  3.5531e-02  2.0155e-01  5.8485e-01  6.9469e-01  8.6614e-02  0:21:08 4961

 reversed flow in 20 faces on pressure-outlet 6. 
    40  2.4081e+02  2.5170e-02  5.2263e-02  8.8529e-04  8.4862e-02  5.2378e-02  5.7253e-02  4.6601e-01  1.0952e+00  3.5142e-01  1.3354e-01  0:33:27 4960

 reversed flow in 1 faces on pressure-outlet 6. 
    41  2.6714e+02  4.1435e-02  6.4578e-02  1.2920e-03  8.4700e-02  6.1828e-02  5.0737e-02  1.8496e-01  1.3438e+00  1.6920e+00 -1.9300e-01  0:26:45 4959
    42  2.7517e+02  4.5277e-02  7.3762e-02  1.6208e-03  8.4491e-02  6.2109e-02  2.6301e-01  3.4455e-01  2.0502e+00  4.0452e-01 -3.2410e-01  0:21:24 4958

 reversed flow in 1 faces on pressure-outlet 6. 
    43  3.6606e+02  5.9317e-02  8.1195e-02  1.2162e-03  1.0420e-01  7.5751e-02  3.1519e-02  1.5803e+00  7.9454e-01  1.3815e+00 -1.3609e-01  0:33:38 4957

 reversed flow in 9 faces on pressure-outlet 6. 
    44  2.8469e+02  5.0837e-02  9.9286e-02  1.1933e-03  9.7352e-02  8.0751e-02 -1.3610e-02  8.3657e-01  4.3262e-01  1.2910e+00 -5.9403e-02  0:26:54 4956

 reversed flow in 1 faces on pressure-outlet 6. 
  iter  continuity  x-velocity  y-velocity      energy           k       omega        Cm-1    cl-1-res        Cl-1    cd-1-res        Cd-1     time/iter
    45  2.7212e+02  3.8949e-02  6.8042e-02  1.1013e-03  8.6767e-02  5.3908e-02  5.1873e-02  3.7451e-01  6.9165e-01  2.1525e+00  5.1545e-02  0:21:31 4955

 reversed flow in 1 faces on pressure-outlet 6. 
    46  3.3566e+02  3.1291e-02  5.4449e-02  1.4952e-03  1.0555e-01  6.6906e-02 -3.7037e-02  4.0304e+00 -2.2824e-01  4.2507e-01  8.9654e-02  0:33:43 4954

 reversed flow in 13 faces on pressure-outlet 6. 
    47  3.4682e+02  4.4170e-02  8.1667e-02  1.4820e-03  8.9598e-02  5.5046e-02 -2.0708e-02  1.5918e+00 -8.8063e-02  4.6771e-01  1.6843e-01  0:26:58 4953

 reversed flow in 5 faces on pressure-outlet 6. 
    48  2.9359e+02  5.2335e-02  7.7404e-02  1.3137e-03  1.0019e-01  6.6379e-02  2.0999e-03  5.4811e-02 -8.3487e-02  2.2919e-01  2.1851e-01  0:21:34 4952
    49  3.5156e+02  4.9590e-02  8.4403e-02  9.2942e-04  9.4375e-02  6.1278e-02 -5.1517e-03  8.0605e-01 -4.3046e-01  2.5026e-01  1.7477e-01  0:33:46 4951

 reversed flow in 8 faces on pressure-outlet 6. 
    50  3.4255e+02  2.6144e-02  5.8262e-02  1.2111e-03  1.1783e-01  7.4578e-02 -5.1695e-02  4.5774e-01 -7.9383e-01  4.2862e+00 -5.3184e-02  0:27:00 4950

 reversed flow in 4 faces on pressure-outlet 6. 
    51  2.7556e+02  3.3537e-02  7.0492e-02  1.0696e-03  9.6769e-02  7.7127e-02 -1.1310e-01  1.6792e-01 -9.5402e-01  4.0195e-01 -8.8929e-02  0:21:36 4949
    52  3.1545e+02  4.3831e-02  7.1327e-02  7.4422e-04  7.8538e-02  7.2661e-02 -7.6109e-02  1.0075e-01 -8.6670e-01  5.1868e+00 -1.4374e-02  0:33:46 4948
# Divergence detected in AMG solver: temperature -> Increasing relaxation sweeps!
    53  3.1832e+02  2.6801e-02  5.1923e-02  4.2835e-03  1.0148e-01  6.3565e-02  2.5687e-02  3.2379e+00  3.8728e-01  1.1063e+00  1.3527e-01  0:27:01 4947

 reversed flow in 4 faces on pressure-outlet 6. 
    54  3.5162e+02  7.1756e-02  1.1808e-01  1.6850e-03  1.0423e-01  7.1792e-02  1.0328e-01  6.1522e-01  1.0065e+00  1.1700e+00  6.2337e-02  0:21:36 4946

 reversed flow in 1 faces on pressure-outlet 6. 
    55  2.9810e+02  4.3944e-02  7.4937e-02  1.2399e-03  9.1021e-02  7.5384e-02  4.9895e-02  4.3876e-01  6.9957e-01  4.4385e-01  1.1209e-01  0:33:46 4945

 reversed flow in 1 faces on pressure-outlet 6. 
  iter  continuity  x-velocity  y-velocity      energy           k       omega        Cm-1    cl-1-res        Cl-1    cd-1-res        Cd-1     time/iter
    56  3.2290e+02  3.3931e-02  6.4214e-02  9.6323e-04  8.7084e-02  6.0532e-02 -2.8323e-02  9.0104e+00  6.9884e-02  1.9203e+00  3.8382e-02  0:27:00 4944

 reversed flow in 5 faces on pressure-outlet 6. 
    57  2.8338e+02  2.5465e-02  5.6659e-02  1.1163e-03  9.5716e-02  6.9398e-02 -1.1640e-02  1.0426e-01  7.8019e-02  6.8956e-01  2.2717e-02  0:21:36 4943

 reversed flow in 4 faces on pressure-outlet 6. 
    58  2.6076e+02  3.6443e-02  7.6032e-02  8.6030e-04  9.8856e-02  6.5946e-02 -4.2894e-02  1.3150e+00 -2.4769e-01  4.1612e+00  4.4014e-03  0:33:45 4942
    59  2.6399e+02  3.6809e-02  6.4627e-02  8.5389e-04  9.9786e-02  6.4316e-02 -5.7440e-02  5.4628e-01 -5.4592e-01  1.0774e+00 -5.6899e-02  0:27:00 4941

 reversed flow in 3 faces on pressure-outlet 6. 
    60  2.9653e+02  3.9112e-02  7.8927e-02  1.5718e-03  1.0459e-01  7.5250e-02  2.1531e-03  2.9813e+01 -1.7717e-02  2.2322e+00  4.6178e-02  0:21:35 4940

 reversed flow in 5 faces on pressure-outlet 6. 
    61  2.8409e+02  4.6354e-02  1.0307e-01  9.0954e-04  9.7093e-02  5.6710e-02  2.6539e-02  1.0537e+00  3.3017e-01  5.5699e-01  1.0424e-01  0:17:16 4939

 reversed flow in 1 faces on pressure-outlet 6. 
    62  2.8258e+02  2.8577e-02  6.2620e-02  1.0413e-03  9.6420e-02  5.8891e-02  4.6641e-02  3.9191e-01  5.4297e-01  3.0330e-02  1.0750e-01  0:30:16 4938

 reversed flow in 4 faces on pressure-outlet 6. 
    63  2.8684e+02  4.1507e-02  7.3421e-02  1.0236e-03  9.9681e-02  7.1268e-02  6.7716e-02  4.7661e-01  1.0374e+00  3.8480e-01  1.7473e-01  0:24:13 4937
    64  3.2469e+02  3.7596e-02  6.5123e-02  8.8255e-04  9.6679e-02  7.1768e-02  1.1395e-01  2.3564e-01  1.3572e+00  1.3498e-01  2.0200e-01  0:35:49 4936
    65  2.8700e+02  3.2045e-02  5.5071e-02  1.3565e-03  1.0041e-01  6.8604e-02  6.4895e-02  1.1795e-01  1.2140e+00  6.7302e-01  1.2074e-01  0:28:39 4935

 reversed flow in 3 faces on pressure-outlet 6. 
    66  2.9481e+02  5.2311e-02  7.3930e-02  9.6132e-04  9.6028e-02  6.8327e-02  4.7281e-02  1.2760e+00  5.3340e-01  6.9686e-02  1.1287e-01  0:22:55 4934
  iter  continuity  x-velocity  y-velocity      energy           k       omega        Cm-1    cl-1-res        Cl-1    cd-1-res        Cd-1     time/iter
    67  2.6838e+02  4.6751e-02  6.7242e-02  8.0490e-04  7.7709e-02  6.4713e-02  4.6799e-02  9.6258e-02  5.9021e-01  3.4962e-01  1.7355e-01  0:34:46 4933
    68  2.5669e+02  2.9454e-02  4.8515e-02  1.2830e-03  8.1998e-02  7.0273e-02  1.0887e-01  4.2650e-01  1.0292e+00  3.6526e-01  2.7342e-01  0:27:49 4932

 reversed flow in 3 faces on pressure-outlet 6. 
    69  2.9055e+02  2.9436e-02  6.6428e-02  1.2772e-03  9.3966e-02  6.5509e-02 -1.2745e-01  2.2766e+00 -8.0616e-01  2.0706e+01 -1.3875e-02  0:22:15 4931

 reversed flow in 6 faces on pressure-outlet 6. 
    70  2.4667e+02  4.0849e-02  8.7515e-02  1.0341e-03  8.9859e-02  6.4432e-02 -1.0085e-01  1.2944e-01 -7.1377e-01  8.3395e-01 -8.3560e-02  0:17:48 4930

 reversed flow in 1 faces on pressure-outlet 6. 
    71  2.7088e+02  4.5399e-02  7.6972e-02  1.2282e-03  9.0646e-02  6.2758e-02 -5.5481e-02  1.6346e+00 -2.7092e-01  6.6231e+00  1.4860e-02  0:30:40 4929

 reversed flow in 4 faces on pressure-outlet 6. 
    72  2.5610e+02  5.1007e-02  8.2378e-02  8.6781e-04  7.3394e-02  5.9167e-02 -7.8333e-02  5.7435e-01 -6.3650e-01  8.7866e-01  1.2247e-01  0:24:31 4928
    73  2.5236e+02  2.0315e-02  4.4694e-02  8.9007e-04  8.5901e-02  6.9174e-02  6.3594e-03  1.6719e+00 -2.3822e-01  2.7214e-01  1.6826e-01  0:19:37 4927
    74  2.7624e+02  3.0131e-02  6.3394e-02  9.0373e-04  7.1506e-02  6.0065e-02  4.1244e-02  3.7850e+01  6.4645e-03  3.6181e-01  1.2355e-01  0:32:07 4926

 reversed flow in 4 faces on pressure-outlet 6. 
    75  2.5634e+02  3.3165e-02  6.5278e-02  9.6297e-04  6.8019e-02  6.2253e-02  1.9265e-02  1.0573e+00 -1.1274e-01  1.2040e+00  5.6059e-02  0:25:41 4925

 reversed flow in 2 faces on pressure-outlet 6. 
    76  2.2900e+02  2.9883e-02  5.6605e-02  7.2217e-04  6.1678e-02  6.6817e-02 -1.0721e-02  6.4681e-01 -3.1920e-01  3.3158e+00  1.2989e-02  0:20:32 4924
    77  2.6744e+02  2.6068e-02  5.3715e-02  9.6743e-04  8.5224e-02  6.0644e-02  5.5125e-02  1.7030e+00  4.5408e-01  9.3434e-01  1.9784e-01  0:32:50 4923

 reversed flow in 4 faces on pressure-outlet 6. 
  iter  continuity  x-velocity  y-velocity      energy           k       omega        Cm-1    cl-1-res        Cl-1    cd-1-res        Cd-1     time/iter
    78  2.7054e+02  2.4698e-02  5.2769e-02  1.0928e-03  7.3001e-02  6.6291e-02  5.6100e-02  4.3873e-02  4.7491e-01  1.5901e-01  1.7070e-01  0:26:16 4922

 reversed flow in 4 faces on pressure-outlet 6. 
    79  2.5168e+02  3.1370e-02  7.2604e-02  1.3814e-03  1.2076e-01  6.6587e-02  1.9318e-01  7.8856e-01  2.2461e+00  2.1975e-01  2.1877e-01  0:21:01 4921

 reversed flow in 1 faces on pressure-outlet 6. 
    80  2.7897e+02  4.7076e-02  8.8080e-02  9.1864e-04  6.6311e-02  6.8147e-02  1.4722e-02  8.3579e-01  1.2235e+00  1.4010e+00 -5.4555e-01  0:33:12 4920

 reversed flow in 1 faces on pressure-outlet 6. 
    81  3.3775e+02  3.5647e-02  6.2103e-02  1.1444e-03  9.7361e-02  7.1434e-02  1.1535e-01  1.5996e-01  1.4565e+00  5.9514e-01 -3.4201e-01  0:26:33 4919

 reversed flow in 18 faces on pressure-outlet 6. 
 temperature limited to 5.000000e+03 in 211 cells on zone 2 in domain 1
    82  3.1053e+02  2.4164e-02  6.0859e-02  1.2714e-03  9.9404e-02  6.9150e-02  5.3064e-02  1.1112e-01  1.3108e+00  4.5141e-01 -2.3564e-01  0:21:15 4918
  temperature limited to 5.000000e+03 in 622 cells on zone 2 in domain 1

 reversed flow in 3 faces on pressure-outlet 6. 
    83  2.7334e+02  4.8321e-02  8.5920e-02  1.4847e-03  1.0042e-01  7.1117e-02 -7.0380e-03  1.0997e+00  6.2429e-01  6.5176e-01 -1.4266e-01  0:33:23 4917

 reversed flow in 4 faces on pressure-outlet 6. 
  temperature limited to 5.000000e+03 in 1356 cells on zone 2 in domain 1
    84  3.1758e+02  5.0533e-02  8.7900e-02  1.1975e-03  6.9573e-02  6.5928e-02 -3.0395e-03  7.5296e-01  3.5613e-01  1.4304e+00 -5.8697e-02  0:26:42 4916
  temperature limited to 5.000000e+03 in 1735 cells on zone 2 in domain 1

 reversed flow in 4 faces on pressure-outlet 6. 
    85  3.1140e+02  2.5778e-02  6.1228e-02  1.1635e-03  9.1252e-02  5.2838e-02  2.3588e-02  1.4987e-01  3.0972e-01  4.3556e+00  1.7492e-02  0:21:21 4915

 reversed flow in 6 faces on pressure-outlet 6. 
  temperature limited to 5.000000e+03 in 2453 cells on zone 2 in domain 1
    86  2.7893e+02  3.5863e-02  8.0224e-02  1.4882e-03  9.5032e-02  4.1831e-02  3.7966e-02  2.4133e-01  4.0824e-01  7.6639e-01  7.4878e-02  0:33:28 4914
  temperature limited to 5.000000e+03 in 1142 cells on zone 2 in domain 1
    87  3.0376e+02  3.5606e-02  7.6355e-02  1.5948e-03  1.0507e-01  4.6343e-02  1.3993e-01  5.3550e-01  8.7888e-01  5.3989e-01  1.6274e-01  0:26:46 4913

 reversed flow in 1 faces on pressure-outlet 6. 
    88  3.6368e+02  2.7029e-02  6.1752e-02  2.5894e-03  9.1949e-02  5.9611e-02  1.2575e-01  4.3442e-01  6.1271e-01  2.2713e-01  2.1056e-01  0:21:24 4912

 reversed flow in 10 faces on pressure-outlet 6. 
  temperature limited to 5.000000e+03 in 1581 cells on zone 2 in domain 1
  iter  continuity  x-velocity  y-velocity      energy           k       omega        Cm-1    cl-1-res        Cl-1    cd-1-res        Cd-1     time/iter
    89  3.0262e+02  4.4333e-02  1.0069e-01  1.3120e-03  1.2512e-01  7.9078e-02  1.0286e-01  3.2919e-01  9.1338e-01  1.3525e-01  2.4350e-01  0:33:29 4911

 reversed flow in 4 faces on pressure-outlet 6. 
  temperature limited to 5.000000e+03 in 112 cells on zone 2 in domain 1
    90  3.1932e+02  5.1954e-02  9.3510e-02  1.4422e-03  1.1840e-01  7.1110e-02 -1.1490e-02  3.8812e+00  1.8712e-01  4.6606e-01  1.6609e-01  0:26:47 4910
  temperature limited to 5.000000e+03 in 146 cells on zone 2 in domain 1

 reversed flow in 13 faces on pressure-outlet 6. 
    91  3.2722e+02  4.1633e-02  7.3268e-02  9.9011e-04  1.0956e-01  8.0364e-02 -3.3975e-02  2.5169e+00 -1.2336e-01  1.5332e+00  6.5564e-02  0:21:26 4909

 reversed flow in 1 faces on pressure-outlet 6. 
  temperature limited to 5.000000e+03 in 820 cells on zone 2 in domain 1
    92  3.4760e+02  4.3754e-02  8.7525e-02  1.1342e-03  7.5781e-02  7.8923e-02 -3.5231e-02  2.8266e+00 -3.2238e-02  5.1836e-01  1.3613e-01  0:33:30 4908

 reversed flow in 3 faces on pressure-outlet 6. 
    93  2.5191e+02  2.8257e-02  6.0680e-02  1.0825e-03  8.2714e-02  6.4456e-02  3.1645e-02  1.0432e+00  7.4628e-01  1.0703e+01 -1.4029e-02  0:26:48 4907
    94  3.0995e+02  4.2806e-02  9.4023e-02  1.2340e-03  8.6148e-02  7.1208e-02  1.5086e-02  7.9740e-01  4.1520e-01  1.3965e+00  3.5378e-02  0:21:26 4906

 reversed flow in 4 faces on pressure-outlet 6. 
    95  3.9855e+02  2.9946e-02  5.3762e-02  1.2778e-03  1.0065e-01  8.0816e-02 -7.7482e-02  5.8450e+00 -8.5696e-02  6.2757e-01  2.1737e-02  0:33:29 4905

 reversed flow in 1 faces on pressure-outlet 6. 
    96  3.2529e+02  3.5848e-02  6.8491e-02  1.0814e-03  1.0242e-01  7.7631e-02  2.9129e-03  1.1137e+00  7.5359e-01  8.1899e-01  1.2009e-01  0:26:47 4904

 reversed flow in 2 faces on pressure-outlet 6. 
    97  3.3859e+02  4.9905e-02  6.4191e-02  9.3110e-04  8.9295e-02  7.5589e-02 -3.9086e-02  1.2550e+00  3.3418e-01  5.8082e-01  7.5965e-02  0:21:25 4903

 reversed flow in 54 faces on pressure-outlet 6. 
    98  2.9672e+02  3.3665e-02  5.7148e-02  9.2312e-04  7.8834e-02  6.5723e-02 -6.7722e-02  7.3325e+00 -5.2773e-02  7.9134e-01  4.2407e-02  0:33:29 4902

 reversed flow in 12 faces on pressure-outlet 6. 
    99  2.6179e+02  3.8889e-02  6.7724e-02  8.2135e-04  7.8464e-02  7.0837e-02  9.7853e-03  1.0616e+00  8.5712e-01  7.8422e-01  1.9653e-01  0:26:47 4901

 reversed flow in 1 faces on pressure-outlet 6. 
  temperature limited to 5.000000e+03 in 67 cells on zone 2 in domain 1
  iter  continuity  x-velocity  y-velocity      energy           k       omega        Cm-1    cl-1-res        Cl-1    cd-1-res        Cd-1     time/iter
   100  2.9148e+02  3.1104e-02  4.4074e-02  7.9484e-04  1.1599e-01  7.5866e-02 -3.6987e-02  3.8785e-01  6.1759e-01  5.0118e+00  3.2690e-02  0:21:25 4900

 reversed flow in 8 faces on pressure-outlet 6. 
  temperature limited to 5.000000e+03 in 129 cells on zone 2 in domain 1
   101  3.1627e+02  4.0240e-02  7.7630e-02  8.9201e-04  9.1905e-02  7.4318e-02 -3.1838e-02  8.7048e-01  3.3018e-01  6.2541e-02  3.0766e-02  0:33:28 4899

 reversed flow in 11 faces on pressure-outlet 6. 
   102  2.8878e+02  4.6160e-02  7.3889e-02  7.5532e-04  7.9840e-02  6.2094e-02 -7.7810e-02  1.6663e+00 -4.9557e-01  4.0087e-01  5.1351e-02  0:26:46 4898

 reversed flow in 1 faces on pressure-outlet 6. 
   103  2.8421e+02  2.3020e-02  4.4111e-02  1.3495e-03  1.0050e-01  7.4688e-02  1.7943e-01  1.2435e+00  2.0356e+00  7.8375e-01  2.3746e-01  0:21:24 4897
   104  3.1570e+02  4.9873e-02  7.0318e-02  1.2043e-03  9.7737e-02  8.3465e-02  2.1443e-01  1.3579e-01  1.7922e+00  1.6808e-01  2.8544e-01  0:33:26 4896

 reversed flow in 33 faces on pressure-outlet 6. 
   105  2.7902e+02  3.7203e-02  6.2995e-02  1.3270e-03  8.4231e-02  7.6751e-02 -3.4737e-01  1.9727e+00 -1.8425e+00  2.9596e+01  9.3293e-03  0:26:45 4895
   106  2.5708e+02  4.7907e-02  8.7024e-02  1.4150e-03  9.3127e-02  7.0342e-02 -2.4691e-01  3.1123e-01 -2.6750e+00  1.0127e+00 -7.3631e-01  0:21:24 4894
   107  3.0732e+02  3.5836e-02  7.3187e-02  1.4219e-03  8.9067e-02  7.0322e-02 -1.0394e-01  4.9701e-01 -1.7869e+00  1.2623e-01 -6.5378e-01  0:33:25 4893

 reversed flow in 1 faces on pressure-outlet 6. 
   108  3.7352e+02  3.5895e-02  7.3612e-02  2.6959e-02  1.9031e-01  3.8114e-01  4.4816e-02  2.4403e+00 -5.1941e-01  1.7554e+00 -2.3727e-01  0:26:44 4892

 reversed flow in 10 faces on pressure-outlet 6. 
  temperature limited to 5.000000e+03 in 411 cells on zone 2 in domain 1
   109  2.8380e+03  1.0174e-01  2.1658e-01  2.0441e-01  1.1491e-01  3.1353e-01  6.9989e-02  3.9509e-01 -8.5866e-01  2.6403e+00  1.4465e-01  0:21:23 4891
  temperature limited to 5.000000e+03 in 429 cells on zone 2 in domain 1

 reversed flow in 4 faces on pressure-outlet 6. 
   110  2.1253e+03  9.2749e-02  2.6983e-01  6.3264e-02  1.6327e-01  3.8014e-01 -1.3634e+00  8.4483e-01 -5.5338e+00  1.0697e+00 -2.0760e+00  0:33:24 4890

 reversed flow in 109 faces on pressure-outlet 6. 
  iter  continuity  x-velocity  y-velocity      energy           k       omega        Cm-1    cl-1-res        Cl-1    cd-1-res        Cd-1     time/iter
   111  1.3978e+03  4.7976e-02  1.5566e-01  3.5341e-02  2.3383e-01  4.4071e-02 -2.1031e+00  4.2095e-01 -3.8945e+00  2.4696e-01 -2.7568e+00  0:26:43 4889

 reversed flow in 185 faces on pressure-outlet 6. 
   112  1.1081e+03  4.3893e-02  9.9952e-02  1.1090e-02  1.4353e-01  1.8061e-01 -8.3842e+00  7.9719e-01 -1.9202e+01  6.3025e-01 -7.4560e+00  0:21:22 4888

 reversed flow in 210 faces on pressure-outlet 6. 
   113  1.4677e+03  1.7347e-02  2.6939e-02  1.0212e-02  1.1465e-01  1.8594e-01 -3.6932e+01  7.9210e-01 -9.2362e+01  7.3851e-01 -2.8513e+01  0:33:23 4887

 reversed flow in 299 faces on pressure-outlet 6. 
   114  1.8582e+03  1.3177e-02  2.0275e-02  1.3812e-02  1.1312e-01  3.8533e-01 -6.6797e+01  4.9363e-01 -1.8240e+02  4.2758e-01 -4.9812e+01  0:26:42 4886

 reversed flow in 109 faces on pressure-outlet 6. 
   115  3.1043e+03  1.9529e-02  1.0894e-02  6.1455e-03  1.3284e-01  1.1316e+00 -8.6898e+01  2.7352e-01 -2.5107e+02  2.2127e-01 -6.3966e+01  0:21:21 4885

 reversed flow in 221 faces on pressure-outlet 6. 
   116  3.1068e+03  8.9123e-03  5.7012e-03  4.7832e-03  1.3846e-01  1.8911e-01 -1.1690e+02  2.6525e-01 -3.4171e+02  2.7109e-01 -8.7755e+01  0:33:22 4884

 reversed flow in 243 faces on pressure-outlet 6. 
   117  2.9388e+03  5.4097e-03  4.4190e-03  5.0438e-03  1.5090e-01  6.0136e-01 -1.2378e+02  6.3188e-02 -3.6476e+02  5.3633e-02 -9.2728e+01  0:26:41 4883

 reversed flow in 278 faces on pressure-outlet 6. 
   118  2.6352e+03  5.9559e-03  4.8690e-03  3.8871e-03  7.8541e-02  4.2137e-01 -1.1759e+02  5.2575e-02 -3.4654e+02  5.3722e-02 -8.8000e+01  0:21:21 4882

 reversed flow in 230 faces on pressure-outlet 6. 
   119  3.0153e+03  6.4450e-03  5.2463e-03  4.2944e-03  5.3841e-02  2.2365e-01 -1.1170e+02  5.2483e-02 -3.2926e+02  5.3852e-02 -8.3504e+01  0:33:20 4881

 reversed flow in 134 faces on pressure-outlet 6. 
   120  3.2139e+03  7.9401e-03  6.9403e-03  4.3389e-03  1.1882e-01  6.7945e-01 -1.0612e+02  5.2700e-02 -3.1278e+02  5.3085e-02 -7.9294e+01  0:26:40 4880

 reversed flow in 4 faces on pressure-outlet 6. 
   121  2.6376e+03  9.8160e-03  7.2349e-03  5.0426e-03  1.7154e-01  6.3243e-01 -9.6329e+01  1.3065e-01 -2.7664e+02  1.1450e-01 -7.1148e+01  0:21:20 4879

 reversed flow in 1 faces on pressure-outlet 6. 
  iter  continuity  x-velocity  y-velocity      energy           k       omega        Cm-1    cl-1-res        Cl-1    cd-1-res        Cd-1     time/iter
   122  2.7960e+03  1.1178e-02  7.4574e-03  4.0098e-03  4.5623e-02  2.7212e-01 -8.7727e+01  1.1225e-01 -2.4872e+02  8.9613e-02 -6.5297e+01  0:33:19 4878

 reversed flow in 2 faces on pressure-outlet 6. 
  temperature limited to 5.000000e+03 in 360 cells on zone 2 in domain 1
   123  3.5035e+03  1.0521e-02  9.0710e-03  3.3955e-03  3.6497e-02  1.8261e-01 -7.8806e+01  1.3105e-01 -2.1990e+02  9.9182e-02 -5.9405e+01  0:26:39 4877
 # You may try the enhanced divergence recovery with (rpsetvar 'amg/protective-enhanced? #t)

Divergence detected in AMG solver: temperature
 reversed flow in 31 faces on pressure-outlet 6. 

Divergence detected in AMG solver: temperature
Divergence detected in AMG solver: temperature
Divergence detected in AMG solver: temperature
Error at host: floating point exception
 temperature limited to 5.000000e+03 in 1406 cells on zone 2 in domain 1

Error at Node 0: floating point exception

Error at Node 1: floating point exception

Error at Node 2: floating point exception

Error at Node 3: floating point exception

Error: floating point exception
Error Object: #f
