/sw/aws/eng/ansys_inc/v160/fluent/fluent16.0.0/bin/fluent -r16.0.0 2ddp -t2 -pinfiniband -mpi=intel -cnf=/var/spool/torque/aux//365377.batch.css.lan -ssh -g -i p02.00_sst.jou
/sw/aws/eng/ansys_inc/v160/fluent/fluent16.0.0/cortex/lnamd64/cortex.16.0.0 -f fluent -g -i p02.00_sst.jou (fluent "2ddp -pinfiniband  -host -r16.0.0 -t2 -mpi=intel -cnf=/var/spool/torque/aux//365377.batch.css.lan -path/sw/aws/eng/ansys_inc/v160/fluent -ssh")
/sw/aws/eng/ansys_inc/v160/fluent/fluent16.0.0/bin/fluent -r16.0.0 2ddp -pinfiniband -host -t2 -mpi=intel -cnf=/var/spool/torque/aux//365377.batch.css.lan -path/sw/aws/eng/ansys_inc/v160/fluent -ssh -cx lena-n080.css.lan:40524:56262
Starting /sw/aws/eng/ansys_inc/v160/fluent/fluent16.0.0/lnamd64/2ddp_host/fluent.16.0.0 host -cx lena-n080.css.lan:40524:56262 "(list (rpsetvar (QUOTE parallel/function) "fluent 2ddp -flux -node -r16.0.0 -t2 -pinfiniband -mpi=intel -cnf=/var/spool/torque/aux//365377.batch.css.lan -ssh") (rpsetvar (QUOTE parallel/rhost) "") (rpsetvar (QUOTE parallel/ruser) "") (rpsetvar (QUOTE parallel/nprocs_string) "2") (rpsetvar (QUOTE parallel/auto-spawn?) #t) (rpsetvar (QUOTE parallel/trace-level) 0) (rpsetvar (QUOTE parallel/remote-shell) 1) (rpsetvar (QUOTE parallel/path) "/sw/aws/eng/ansys_inc/v160/fluent") (rpsetvar (QUOTE parallel/hostsfile) "/var/spool/torque/aux//365377.batch.css.lan") )"

              Welcome to ANSYS Fluent Release 16.0

              Copyright 2014 ANSYS, Inc.. All Rights Reserved.
              Unauthorized use, distribution or duplication is prohibited.
              This product is subject to U.S. laws governing export and re-export.
              For full Legal Notice, see documentation.

Build Time: Dec 22 2014 11:50:04 EST  Build Id: 10427
 

     --------------------------------------------------------------
     This is an academic version of ANSYS FLUENT. Usage of this product
     license is limited to the terms and conditions specified in your ANSYS
     license form, additional terms section.
     --------------------------------------------------------------
Host spawning Node 0 on machine "lena-n080" (unix).
/sw/aws/eng/ansys_inc/v160/fluent/fluent16.0.0/bin/fluent -r16.0.0 2ddp -flux -node -t2 -pinfiniband -mpi=intel -cnf=/var/spool/torque/aux//365377.batch.css.lan -ssh -mport 10.7.148.80:10.7.148.80:45985:0
Starting /sw/aws/eng/ansys_inc/v160/fluent/fluent16.0.0/multiport/mpi/lnamd64/intel/bin/mpirun -f /tmp/fluent-appfile.1529 --rsh=ssh -genv I_MPI_FABRICS shm:dapl -genv I_MPI_DAPL_UD enable -genv I_MPI_FALLBACK_DEVICE disable -genv I_MPI_DEBUG 0 -genv I_MPI_PIN disable -genv I_MPI_ADJUST_REDUCE 2 -genv I_MPI_ADJUST_ALLREDUCE 2 -genv I_MPI_ADJUST_BCAST 1 -genv I_MPI_PLATFORM auto -genv I_MPI_DAPL_SCALABLE_PROGRESS 1 -genv FLUENT_PROD_DIR /sw/aws/eng/ansys_inc/v160/fluent/fluent16.0.0 -genv LD_PRELOAD /sw/aws/eng/ansys_inc/v160/fluent/fluent16.0.0/multiport/mpi/lnamd64/intel/lib/libmpi_mt.so -genv LD_LIBRARY_PATH /sw/aws/eng/ansys_inc/v160/fluent/fluent16.0.0/multiport/mpi/lnamd64/intel/lib:/sw/aws/eng/ansys_inc/v160/fluent/fluent16.0.0/multiport/mpi/lnamd64/intel/lib64:/sw/aws/eng/ansys_inc/v160/fluent/fluent16.0.0/multiport/mpi_wrapper/lnamd64/intel:/sw/aws/eng/ansys_inc/v160/fluent/fluent16.0.0/addons/hdfio/lnamd64/2ddp_node:/sw/aws/eng/ansys_inc/v160/fluent/fluent16.0.0/addons/hdfio/lnamd64:/sw/aws/eng/ansys_inc/v160/fluent/fluent16.0.0/multiport/lnamd64/mpi/shared:/sw/aws/eng/ansys_inc/v160/fluent/fluent16.0.0/multiport/lnamd64/mpi/shared:/lib/i686:/sw/aws/eng/ansys_inc/v160/fluent/fluent16.0.0/lnamd64/syslib:/sw/aws/eng/ansys_inc/v160/fluent/fluent16.0.0/addons/adjoint/lnamd64/2ddp:/sw/aws/eng/ansys_inc/v160/fluent/fluent16.0.0/addons/hdfio/lnamd64/2ddp_host:/sw/aws/eng/ansys_inc/v160/fluent/fluent16.0.0/addons/hdfio/lnamd64:/sw/aws/eng/ansys_inc/v160/fluent/fluent16.0.0/multiport/lnamd64/net/shared:/lib/i686:/sw/aws/eng/ansys_inc/v160/fluent/fluent16.0.0/lnamd64/syslib:/sw/aws/eng/ansys_inc/v160/fluent/fluent16.0.0/addons/adjoint/lnamd64/2ddp:/sw/aws/eng/ansys_inc/v160/fluent/fluent16.0.0/multiport/lnamd64/net/shared:/lib/i686:/sw/aws/eng/ansys_inc/v160/fluent/fluent16.0.0/lnamd64/syslib:/sw/aws/eng/ansys_inc/v160/fluent/fluent16.0.0/vki/lnamd64:/sw/aws/eng/ansys_inc/v160/fluent/fluent16.0.0/vki/lnamd64/libodb682:/sw/aws/eng/ansys_inc/v160/fluent/fluent16.0.0/addons/adjoint/lnamd64/2ddp::/sw/aws/eng/ansys_inc/v160/fluent/fluent16.0.0/wave/lnamd64:/sw/aws/eng/ansys_inc/v160/fluent/fluent16.0.0/KINetics/lnamd64:/sw/aws/eng/ansys_inc/v160/fluent/fluent16.0.0/cpropep/lnamd64:/usr/lib64:/usr/lib:/sw/aws/eng/ansys_inc/v160/fluent/lib/lnamd64:.:/sw/aws/eng/ansys_inc/v160/fluent/../commonfiles/Tcl/lib/linx64:.:.:/usr/lib64:/usr/lib:/sw/aws/eng/ansys_inc/v160/fluent/lib/lnamd64:.:/sw/aws/eng/ansys_inc/v160/fluent/../commonfiles/Tcl/lib/linx64:.:.:/sw/aws/eng/ansys_inc/v160/fluent/fluent16.0.0/multiport/mpi_wrapper/lnamd64/stub:/usr/lib64:/usr/lib:/sw/aws/eng/ansys_inc/v160/fluent/lib/lnamd64:.:/sw/aws/eng/ansys_inc/v160/fluent/../commonfiles/Tcl/lib/linx64:.:.:/sw/aws/eng/ansys_inc/v160/fluent/fluent16.0.0/lnamd64/2ddp_node -machinefile /tmp/fluent-appfile.1529 -np 2 /sw/aws/eng/ansys_inc/v160/fluent/fluent16.0.0/lnamd64/2ddp_node/fluent_mpi.16.0.0 node -mpiw intel -pic infiniband -mport 10.7.148.80:10.7.148.80:45985:0

-------------------------------------------------------------------------------
ID    Hostname   Core  O.S.      PID        Vendor                      
-------------------------------------------------------------------------------
n0-1  lena-n080  2/16  Linux-64  1932-1933  Intel(R) Xeon(R) E5-2630 v3 
host  lena-n080        Linux-64  32381      Intel(R) Xeon(R) E5-2630 v3 

MPI Option Selected: intel
Selected system interconnect: InfiniBand
-------------------------------------------------------------------------------


Reading journal file p02.00_sst.jou...

> ; Input simulation parameters
(define aoa 2.0)
aoa


> (define mach 0.157)
mach
 

> (define temperatur 288.15)
temperatur


> (define cl_tol 0.0001)
cl_tol


> (define cd_tol 0.0001)
cd_tol


> (define conv_last_iters 25)
conv_last_iters


> /file/read-case "r19600_norm"WARNING: Rank:0 Machine lena-n080 has 32 % of RAM filled with file buffer caches.
This can cause potential performance issues. Please use -cflush flag to flush the cache. 


Reading "r19600_norm.cas"...
Buffering for file scan...

   85756 nodes.
   85088 quadrilateral cells, zone  2.
  169508 2D interior faces, zone  3.
     428 2D wall faces, zone  4.
     592 2D pressure-far-field faces, zone  5.
     316 2D pressure-outlet faces, zone  6.

Building...
     mesh
	auto partitioning mesh by Metis (fast),
	distributing mesh
		parts..,
		faces..,
		nodes..,
		cells..,
     materials,
     interface,
     domains,
     zones,
	outlet
	inlet
	airfoil
	interior-fluid
	fluid
     parallel,
Done.


> 
adapt/                  file/                   report/
define/                 mesh/                   solve/
display/                parallel/               surface/
exit                    plot/                   views/

> ; Define constants
(define pi 3.14159265359)
pi


> 
adapt/                  file/                   report/
define/                 mesh/                   solve/
display/                parallel/               surface/
exit                    plot/                   views/

> ; Get xComponent and yComponent based on angle of attack
(define xComp (cos (* aoa (/ pi 180.0) ) ) )
xcomp


> (define yComp (sin (* aoa (/ pi 180.0) ) ) )
ycomp


> 
adapt/                  file/                   report/
define/                 mesh/                   solve/
display/                parallel/               surface/
exit                    plot/                   views/

> ;Start of journal
/mesh/reorder/reorder-domain 
>> Reordering domain using Reverse Cuthill-McKee method:
      zones, cells, faces, done.
   Bandwidth reduction = 25388/181 = 140.27  
   Done.


> /define/materials/change-create air air air is a fluid
yes 
Density
methods: (constant ideal-gas incompressible-ideal-gas real-gas-soave-redlich-kwong real-gas-peng-robinson real-gas-aungier-redlich-kwong real-gas-redlich-kwong boussinesq piecewise-linear piecewise-polynomial polynomial compressible-liquid user-defined)
ideal-gas no data required.

no no no no no no 
Note: Enabling energy equation as required by material density method.


> /define/models/energy? yes yes no

> 
adapt/                  file/                   report/
define/                 mesh/                   solve/
display/                parallel/               surface/
exit                    plot/                   views/

> ; For kw-sst model uncomment below
/define/models/viscous/kw-sst? yes

> /define/boundary-conditions/pressure-far-field (inlet)
inlet no 0. no (+ mach) no (+ temperatur) no (+ xComp) no (+ yComp) no no yes 0.1 10 

> /define/boundary-conditions/pressure-outlet (outlet)
outlet no 0. no (+ temperatur) no yes no no yes 0.1 10 no no

> /solve/monitors/residual/check-convergence? no no no no no no

> 
adapt/                  file/                   report/
define/                 mesh/                   solve/
display/                parallel/               surface/
exit                    plot/                   views/

> ; Operating conditions and reference values
/define/operating-conditions/operating-pressure 101325. 

> /report/reference-values/compute/pressure-far-field (inlet)
inlet 

> /report/reference-values/area 1. 

> /report/reference-values/length 1. 

> 
adapt/                  file/                   report/
define/                 mesh/                   solve/
display/                parallel/               surface/
exit                    plot/                   views/

> ; Setup of solution methods
/solve/set/p-v-coupling 24

> /solve/set/gradient-scheme  Options:
 Green-Gauss Cell-Based 
 Green-Gauss Node-Based 
 Least-Squares Cell-Based Default 
no yes 
 Least-Squares Cell-Based will be used

> /solve/set/discretization-scheme/pressure 12 

> /solve/set/discretization-scheme/density 1 

> /solve/set/discretization-scheme/mom 1 

> /solve/set/discretization-scheme/k 1 

> /solve/set/discretization-scheme/omega 1 

> /solve/set/discretization-scheme/temperature 1

> 
adapt/                  file/                   report/
define/                 mesh/                   solve/
display/                parallel/               surface/
exit                    plot/                   views/

> ; Setup solution controls
/solve/set/p-v-controls 50. 0.3 0.3 

> /solve/set/under-relaxation/density 0.5

> /solve/set/under-relaxation/body-force 1.0

> /solve/set/under-relaxation/k 0.5

> /solve/set/under-relaxation/omega 0.5

> /solve/set/under-relaxation/turb-viscosity 1.0

> /solve/set/under-relaxation/temperature 1.0

> 
adapt/                  file/                   report/
define/                 mesh/                   solve/
display/                parallel/               surface/
exit                    plot/                   views/

> ; Uncomment to enable blending factor for higher order therms
;/solve/set/numerics no yes no no no 1. 

adapt/                  file/                   report/
define/                 mesh/                   solve/
display/                parallel/               surface/
exit                    plot/                   views/

> ; Define monitors
/solve/monitors/force/set-lift-monitor cl-1 yes airfoil () yes yes "p02.00_sst.cl" yes 2 no (- yComp) (+ xComp) 

> /solve/monitors/force/set-drag-monitor cd-1 yes airfoil () yes yes "p02.00_sst.cd" yes 3 no (+ xComp) (+ yComp) 

> /solve/monitors/force/set-moment-monitor cm-1 yes airfoil () yes yes "p02.00_sst.cm" yes 4 no 0.25 0 0 0 1

> 
adapt/                  file/                   report/
define/                 mesh/                   solve/
display/                parallel/               surface/
exit                    plot/                   views/

> ; Convergence monitors
/solve/monitors/convergence/add-edit (cd-1 cl-1 cm-1)
cd-1 Adding cd-1
(+ cl_tol) 500 (+ conv_last_iters) yes no 

> /solve/monitors/convergence/add-edit (cd-1 cl-1 cm-1)
cl-1 Adding cl-1
(+ cd_tol) 500 (+ conv_last_iters) yes no 

> 
adapt/                  file/                   report/
define/                 mesh/                   solve/
display/                parallel/               surface/
exit                    plot/                   views/

> ; Initialize solution
/solve/initialize/compute-defaults/pressure-far-field (inlet)
inlet 

> /solve/initialize/list-defaults      phase: mixture
                     Gauge Pressure: 0
                         X Velocity: 53.373158
                         Y Velocity: 1.8638318
           Turbulent Kinetic Energy: 0.0042782519
          Specific Dissipation Rate: 29.289883
                        Temperature: 288.15


> ;/solve/initialize/initialize-flow 
/solve/initialize/fmg-initialization invalid command [fmg-initialization]
yes

> 
adapt/                  file/                   report/
define/                 mesh/                   solve/
display/                parallel/               surface/
exit                    plot/                   views/

> ; Start iterating
/solve/set/number-of-iterations 5000 

> /solve/iterate 5000   iter  continuity  x-velocity  y-velocity      energy           k       omega        Cm-1    cl-1-res        Cl-1    cd-1-res        Cd-1     time/iter
     1  1.0000e+00  7.2503e-06  3.6924e-06  9.0475e-08  2.9932e+00  1.7298e+01  8.4919e-02  0.0000e+00  1.5431e-01  0.0000e+00  6.3155e-01  1:23:25 4999
     2  9.5641e-01  1.4775e-05  1.0517e-05  6.9201e-08  2.0911e-01  1.9628e-01  9.3624e-02  2.7797e-01  2.1372e-01  1.5645e-01  5.4612e-01  1:17:27 4998
     3  8.4792e-01  1.4866e-05  1.2618e-05  5.5947e-08  2.3276e-01  8.2956e-02  1.0965e-01  2.0850e-01  2.7002e-01  2.6692e-01  4.3106e-01  1:12:13 4997
     4  7.1093e-01  1.4304e-05  1.3002e-05  4.3993e-08  1.9417e-01  3.0334e-02  1.1854e-01  1.2770e-01  3.0955e-01  2.9540e-01  3.3276e-01  1:09:15 4996
     5  6.6049e-01  1.3397e-05  1.2867e-05  3.5266e-08  1.4097e-01  1.6166e-02  1.2258e-01  8.5793e-02  3.3860e-01  2.8798e-01  2.5836e-01  1:05:12 4995
     6  7.0651e-01  1.2476e-05  1.2165e-05  3.0509e-08  9.3415e-02  1.7753e-02  1.2413e-01  6.3222e-02  3.6145e-01  2.8113e-01  2.0167e-01  0:57:27 4994
     7  7.2469e-01  1.1799e-05  1.1234e-05  2.8619e-08  5.8983e-02  1.7363e-02  1.2452e-01  5.0876e-02  3.8083e-01  2.7391e-01  1.5830e-01  0:53:31 4993
     8  6.9278e-01  1.1323e-05  1.0360e-05  2.6906e-08  3.6839e-02  1.6197e-02  1.2451e-01  4.2934e-02  3.9791e-01  2.6716e-01  1.2493e-01  0:50:19 4992
     9  6.3638e-01  1.0998e-05  9.6077e-06  2.5687e-08  2.3605e-02  1.4426e-02  1.2446e-01  3.8551e-02  4.1387e-01  2.5694e-01  9.9391e-02  0:45:15 4991
    10  5.6839e-01  1.0816e-05  8.9985e-06  2.4759e-08  1.5867e-02  1.2740e-02  1.2452e-01  3.5587e-02  4.2914e-01  2.4265e-01  7.9983e-02  0:40:55 4990
    11  4.9922e-01  1.0756e-05  8.5284e-06  2.4066e-08  1.1397e-02  1.1089e-02  1.2479e-01  3.3686e-02  4.4410e-01  2.2528e-01  6.5278e-02  0:37:37 4989
  iter  continuity  x-velocity  y-velocity      energy           k       omega        Cm-1    cl-1-res        Cl-1    cd-1-res        Cd-1     time/iter
    12  4.3477e-01  1.0761e-05  8.1579e-06  2.3598e-08  8.7685e-03  9.7266e-03  1.2525e-01  3.2032e-02  4.5880e-01  2.0480e-01  5.4181e-02  0:35:02 4988
    13  3.7616e-01  1.0784e-05  7.8618e-06  2.3274e-08  7.1925e-03  8.4487e-03  1.2588e-01  3.0470e-02  4.7321e-01  1.8247e-01  4.5820e-02  0:37:07 4987
    14  3.2134e-01  1.0805e-05  7.6079e-06  2.2976e-08  6.2144e-03  7.1361e-03  1.2661e-01  2.9107e-02  4.8740e-01  1.5905e-01  3.9533e-02  0:40:25 4986
    15  2.7736e-01  1.0808e-05  7.3708e-06  2.2586e-08  5.5814e-03  5.9388e-03  1.2741e-01  2.7730e-02  5.0130e-01  1.3649e-01  3.4785e-02  0:43:01 4985
    16  2.4189e-01  1.0782e-05  7.1402e-06  2.2125e-08  5.1575e-03  4.9370e-03  1.2821e-01  2.6154e-02  5.1477e-01  1.1451e-01  3.1211e-02  0:46:31 4984
    17  2.0809e-01  1.0717e-05  6.9067e-06  2.1477e-08  4.8693e-03  4.1102e-03  1.2899e-01  2.4650e-02  5.2778e-01  9.7231e-02  2.8445e-02  0:49:16 4983
    18  1.7926e-01  1.0603e-05  6.6529e-06  2.0720e-08  4.6756e-03  3.4235e-03  1.2971e-01  2.3136e-02  5.4028e-01  8.2182e-02  2.6285e-02  0:51:28 4982
    19  1.5428e-01  1.0447e-05  6.3805e-06  1.9883e-08  4.5453e-03  2.8706e-03  1.3034e-01  2.1664e-02  5.5224e-01  6.9990e-02  2.4566e-02  0:53:21 4981
    20  1.3407e-01  1.0251e-05  6.0926e-06  1.8970e-08  4.4684e-03  2.4402e-03  1.3087e-01  2.0182e-02  5.6361e-01  6.0562e-02  2.3163e-02  0:54:50 4980
    21  1.1978e-01  1.0027e-05  5.7899e-06  1.8045e-08  4.4399e-03  2.1065e-03  1.3127e-01  1.8732e-02  5.7437e-01  5.3599e-02  2.1985e-02  0:55:52 4979
    22  1.0702e-01  9.7848e-06  5.4765e-06  1.7052e-08  4.4581e-03  1.8556e-03  1.3156e-01  1.7354e-02  5.8452e-01  4.8690e-02  2.0964e-02  0:56:53 4978
  iter  continuity  x-velocity  y-velocity      energy           k       omega        Cm-1    cl-1-res        Cl-1    cd-1-res        Cd-1     time/iter
    23  9.7050e-02  9.5344e-06  5.1618e-06  1.6036e-08  4.5182e-03  1.6614e-03  1.3173e-01  1.6048e-02  5.9405e-01  4.5270e-02  2.0056e-02  0:57:39 4977
    24  8.9168e-02  9.2830e-06  4.8483e-06  1.5005e-08  4.6224e-03  1.4987e-03  1.3182e-01  1.4842e-02  6.0300e-01  4.2930e-02  1.9230e-02  0:58:12 4976
    25  8.1700e-02  9.0384e-06  4.5403e-06  1.3950e-08  4.7672e-03  1.3579e-03  1.3181e-01  1.3680e-02  6.1136e-01  4.1600e-02  1.8462e-02  0:58:39 4975
    26  7.6448e-02  8.7993e-06  4.2418e-06  1.2891e-08  4.9536e-03  1.2368e-03  1.3172e-01  1.2619e-02  6.1918e-01  4.0639e-02  1.7741e-02  0:59:03 4974
    27  7.1777e-02  8.5625e-06  3.9588e-06  1.1879e-08  5.1725e-03  1.1335e-03  1.3158e-01  1.1655e-02  6.2648e-01  3.9919e-02  1.7060e-02  1:03:54 4973
    28  6.7360e-02  8.3182e-06  3.6920e-06  1.0915e-08  5.4181e-03  1.0603e-03  1.3140e-01  1.0782e-02  6.3331e-01  3.9190e-02  1.6417e-02  1:03:20 4972
    29  6.3055e-02  8.0654e-06  3.4428e-06  1.0031e-08  5.6860e-03  1.0003e-03  1.3119e-01  9.9694e-03  6.3968e-01  3.8700e-02  1.5805e-02  1:03:18 4971
    30  5.9850e-02  7.8013e-06  3.2111e-06  9.1261e-09  5.9595e-03  9.5344e-04  1.3095e-01  9.1829e-03  6.4561e-01  3.8405e-02  1.5221e-02  1:03:17 4970
    31  5.6439e-02  7.5303e-06  2.9986e-06  8.3001e-09  6.2340e-03  9.1503e-04  1.3068e-01  8.4444e-03  6.5111e-01  3.8044e-02  1.4663e-02  1:03:27 4969
    32  5.3174e-02  7.2488e-06  2.8046e-06  7.6077e-09  6.4924e-03  8.8155e-04  1.3038e-01  7.7463e-03  6.5619e-01  3.7672e-02  1.4131e-02  1:03:26 4968
    33  5.0068e-02  6.9674e-06  2.6290e-06  7.0431e-09  6.7339e-03  8.5142e-04  1.3006e-01  7.0544e-03  6.6086e-01  3.7854e-02  1.3615e-02  1:04:55 4967
  iter  continuity  x-velocity  y-velocity      energy           k       omega        Cm-1    cl-1-res        Cl-1    cd-1-res        Cd-1     time/iter
    34  4.7576e-02  6.6776e-06  2.4740e-06  6.5835e-09  6.9399e-03  8.2368e-04  1.2968e-01  6.3543e-03  6.6508e-01  3.8108e-02  1.3115e-02  1:05:59 4966
    35  4.5201e-02  6.3835e-06  2.3388e-06  6.2395e-09  7.0842e-03  8.0066e-04  1.2923e-01  5.6378e-03  6.6885e-01  3.8578e-02  1.2628e-02  1:07:01 4965
    36  4.3232e-02  6.0834e-06  2.2216e-06  5.9577e-09  7.1680e-03  7.8085e-04  1.2869e-01  4.8801e-03  6.7213e-01  3.9485e-02  1.2149e-02  1:07:55 4964
    37  4.1410e-02  5.7803e-06  2.1242e-06  5.7416e-09  7.1718e-03  7.6307e-04  1.2804e-01  4.0505e-03  6.7487e-01  4.1045e-02  1.1670e-02  1:08:25 4963
    38  3.8737e-02  5.4757e-06  2.0443e-06  5.5573e-09  7.1148e-03  7.4550e-04  1.2725e-01  3.1645e-03  6.7701e-01  4.3152e-02  1.1187e-02  1:08:47 4962
    39  3.7565e-02  5.1753e-06  1.9771e-06  5.4121e-09  7.0145e-03  7.2631e-04  1.2631e-01  2.2487e-03  6.7853e-01  4.5704e-02  1.0698e-02  1:09:04 4961
    40  3.7012e-02  4.8808e-06  1.9226e-06  5.2986e-09  6.8970e-03  7.0599e-04  1.2523e-01  1.3380e-03  6.7944e-01  4.8546e-02  1.0203e-02  1:09:28 4960
    41  3.6223e-02  4.5921e-06  1.8786e-06  5.1982e-09  6.7706e-03  6.8913e-04  1.2405e-01  5.3931e-04  6.7981e-01  5.0957e-02  9.7079e-03  1:09:45 4959
    42  3.5334e-02  4.3108e-06  1.8390e-06  5.0954e-09  6.6365e-03  6.7288e-04  1.2283e-01  5.0057e-05  6.7978e-01  5.2098e-02  9.2272e-03  1:09:55 4958
    43  3.4262e-02  4.0345e-06  1.7979e-06  4.9828e-09  6.5082e-03  6.5591e-04  1.2168e-01  3.3771e-04  6.7955e-01  5.0804e-02  8.7811e-03  1:10:02 4957
    44  3.3244e-02  3.7659e-06  1.7507e-06  4.8565e-09  6.3788e-03  6.3731e-04  1.2059e-01  5.9357e-04  6.7914e-01  4.9119e-02  8.3699e-03  3:18:57 4956
  iter  continuity  x-velocity  y-velocity      energy           k       omega        Cm-1    cl-1-res        Cl-1    cd-1-res        Cd-1     time/iter
    45  3.2331e-02  3.5062e-06  1.6987e-06  4.7416e-09  6.2643e-03  6.2035e-04  1.1958e-01  7.9318e-04  6.7861e-01  4.6562e-02  7.9976e-03  2:53:24 4955
    46  3.1436e-02  3.2564e-06  1.6416e-06  4.6327e-09  6.1523e-03  6.0599e-04  1.1860e-01  1.0581e-03  6.7789e-01  4.4570e-02  7.6563e-03  2:34:27 4954
    47  3.0704e-02  3.0203e-06  1.5810e-06  4.5448e-09  6.0405e-03  5.9179e-04  1.1761e-01  1.4708e-03  6.7689e-01  4.3797e-02  7.3351e-03  2:19:20 4953
    48  3.0181e-02  2.7995e-06  1.5202e-06  4.4666e-09  5.9402e-03  5.7804e-04  1.1658e-01  1.9358e-03  6.7559e-01  4.3842e-02  7.0270e-03  2:07:19 4952
    49  2.9595e-02  2.5931e-06  1.4617e-06  4.4324e-09  5.8479e-03  5.6490e-04  1.1549e-01  2.4607e-03  6.7393e-01  4.5206e-02  6.7231e-03  1:57:28 4951
    50  2.8877e-02  2.4037e-06  1.4065e-06  4.4665e-09  5.7615e-03  5.5199e-04  1.1433e-01  2.9879e-03  6.7192e-01  4.6784e-02  6.4226e-03  1:49:43 4950
    51  2.8329e-02  2.2341e-06  1.3559e-06  4.5390e-09  5.6774e-03  5.3964e-04  1.1314e-01  3.4394e-03  6.6962e-01  4.7414e-02  6.1319e-03  1:43:27 4949
    52  2.8025e-02  2.0934e-06  1.3122e-06  4.6360e-09  5.6020e-03  5.2750e-04  1.1194e-01  3.8185e-03  6.6707e-01  4.6802e-02  5.8577e-03  1:38:25 4948
    53  2.7608e-02  1.9926e-06  1.2768e-06  4.7383e-09  5.5387e-03  5.1647e-04  1.1074e-01  4.1433e-03  6.6432e-01  4.5356e-02  5.6036e-03  1:34:23 4947
    54  2.7619e-02  1.9396e-06  1.2513e-06  4.8186e-09  5.4758e-03  5.0535e-04  1.0959e-01  4.2974e-03  6.6147e-01  4.0895e-02  5.3834e-03  1:29:32 4946
    55  2.7796e-02  1.9365e-06  1.2381e-06  4.8767e-09  5.4128e-03  4.9515e-04  1.0856e-01  4.2518e-03  6.5867e-01  3.3781e-02  5.2075e-03  1:25:54 4945
  iter  continuity  x-velocity  y-velocity      energy           k       omega        Cm-1    cl-1-res        Cl-1    cd-1-res        Cd-1     time/iter
    56  2.7980e-02  1.9586e-06  1.2323e-06  4.8920e-09  5.3543e-03  4.8509e-04  1.0769e-01  3.9980e-03  6.5605e-01  2.3285e-02  5.0890e-03  1:22:59 4944
    57  2.8416e-02  1.9851e-06  1.2232e-06  4.8743e-09  5.3041e-03  4.7522e-04  1.0702e-01  3.5709e-03  6.5372e-01  1.0974e-02  5.0337e-03  1:20:46 4943
    58  2.8969e-02  2.0090e-06  1.2057e-06  4.8153e-09  5.2529e-03  4.6563e-04  1.0655e-01  3.0710e-03  6.5171e-01  1.2034e-03  5.0398e-03  1:18:49 4942
    59  2.9390e-02  2.0246e-06  1.1803e-06  4.7306e-09  5.2008e-03  4.5644e-04  1.0628e-01  2.5519e-03  6.5006e-01  1.1886e-02  5.1004e-03  1:17:16 4941
    60  2.9453e-02  2.0277e-06  1.1477e-06  4.6310e-09  5.1517e-03  4.4897e-04  1.0617e-01  2.0492e-03  6.4873e-01  2.0990e-02  5.2098e-03  1:16:06 4940
    61  2.9304e-02  2.0169e-06  1.1085e-06  4.5101e-09  5.1100e-03  4.4287e-04  1.0620e-01  1.6156e-03  6.4768e-01  2.7331e-02  5.3562e-03  1:15:15 4939
    62  2.9051e-02  1.9932e-06  1.0636e-06  4.3685e-09  5.0681e-03  4.3699e-04  1.0629e-01  1.3916e-03  6.4678e-01  2.9519e-02  5.5191e-03  1:14:22 4938
    63  2.8904e-02  1.9575e-06  1.0149e-06  4.2035e-09  5.0256e-03  4.3041e-04  1.0634e-01  1.4598e-03  6.4584e-01  2.6620e-02  5.6700e-03  1:13:34 4937
    64  2.8866e-02  1.9147e-06  9.6474e-07  4.0420e-09  4.9859e-03  4.2364e-04  1.0628e-01  1.7977e-03  6.4468e-01  1.9958e-02  5.7855e-03  1:13:05 4936
    65  2.9085e-02  1.8703e-06  9.1464e-07  3.8935e-09  4.9501e-03  4.1712e-04  1.0606e-01  2.3044e-03  6.4320e-01  1.1557e-02  5.8531e-03  1:12:49 4935
    66  2.9366e-02  1.8257e-06  8.6773e-07  3.7684e-09  4.9160e-03  4.1079e-04  1.0566e-01  2.8815e-03  6.4135e-01  2.2178e-03  5.8661e-03  1:14:02 4934
  iter  continuity  x-velocity  y-velocity      energy           k       omega        Cm-1    cl-1-res        Cl-1    cd-1-res        Cd-1     time/iter
    67  2.9304e-02  1.7851e-06  8.3121e-07  3.6898e-09  4.8814e-03  4.0499e-04  1.0509e-01  3.5125e-03  6.3910e-01  5.4906e-03  5.8341e-03  1:13:24 4933
    68  2.9369e-02  1.7458e-06  8.0523e-07  3.6156e-09  4.8443e-03  3.9935e-04  1.0439e-01  4.0285e-03  6.3654e-01  1.1256e-02  5.7692e-03  1:14:31 4932
    69  2.9238e-02  1.7142e-06  7.8701e-07  3.5574e-09  4.8064e-03  3.9395e-04  1.0362e-01  4.3540e-03  6.3378e-01  1.3431e-02  5.6927e-03  1:15:17 4931
    70  2.9164e-02  1.6866e-06  7.7129e-07  3.4993e-09  4.7691e-03  3.8855e-04  1.0286e-01  4.4810e-03  6.3095e-01  1.2203e-02  5.6241e-03  1:15:53 4930
    71  2.9143e-02  1.6632e-06  7.5680e-07  3.4343e-09  4.7336e-03  3.8315e-04  1.0215e-01  4.4119e-03  6.2818e-01  8.5563e-03  5.5764e-03  1:16:19 4929
    72  2.9024e-02  1.6412e-06  7.4096e-07  3.3735e-09  4.6986e-03  3.7756e-04  1.0152e-01  4.2199e-03  6.2554e-01  3.4986e-03  5.5569e-03  1:16:45 4928
    73  2.8775e-02  1.6213e-06  7.2435e-07  3.3071e-09  4.6626e-03  3.7220e-04  1.0101e-01  3.9265e-03  6.2309e-01  2.3900e-03  5.5702e-03  1:16:59 4927
    74  2.8498e-02  1.6009e-06  7.0735e-07  3.2374e-09  4.6277e-03  3.6745e-04  1.0062e-01  3.5791e-03  6.2087e-01  8.0014e-03  5.6152e-03  1:17:22 4926
    75  2.8052e-02  1.5798e-06  6.8855e-07  3.1616e-09  4.5983e-03  3.6317e-04  1.0034e-01  3.1825e-03  6.1890e-01  1.3504e-02  5.6920e-03  1:17:27 4925
    76  2.7678e-02  1.5571e-06  6.6839e-07  3.0865e-09  4.5723e-03  3.5885e-04  1.0017e-01  2.8172e-03  6.1716e-01  1.7485e-02  5.7933e-03  1:17:26 4924
    77  2.7504e-02  1.5284e-06  6.4740e-07  3.0019e-09  4.5469e-03  3.5469e-04  1.0007e-01  2.5689e-03  6.1558e-01  1.9500e-02  5.9085e-03  1:17:31 4923
  iter  continuity  x-velocity  y-velocity      energy           k       omega        Cm-1    cl-1-res        Cl-1    cd-1-res        Cd-1     time/iter
    78  2.7536e-02  1.4981e-06  6.2538e-07  2.9179e-09  4.5189e-03  3.5057e-04  9.9982e-02  2.4201e-03  6.1410e-01  1.9524e-02  6.0262e-03  1:17:27 4922
    79  2.7753e-02  1.4659e-06  6.0423e-07  2.8347e-09  4.4919e-03  3.4583e-04  9.9875e-02  2.4346e-03  6.1260e-01  1.7516e-02  6.1336e-03  1:19:03 4921
    80  2.7782e-02  1.4361e-06  5.8185e-07  2.7494e-09  4.4645e-03  3.4098e-04  9.9742e-02  2.4620e-03  6.1110e-01  1.5282e-02  6.2288e-03  1:20:05 4920
    81  2.7824e-02  1.4060e-06  5.6157e-07  2.6711e-09  4.4396e-03  3.3595e-04  9.9561e-02  2.5775e-03  6.0953e-01  1.2665e-02  6.3087e-03  1:20:59 4919
    82  2.7649e-02  1.3758e-06  5.4212e-07  2.5909e-09  4.4140e-03  3.3119e-04  9.9350e-02  2.6444e-03  6.0792e-01  1.0734e-02  6.3772e-03  1:21:37 4918
    83  2.7334e-02  1.3459e-06  5.2429e-07  2.5212e-09  4.3872e-03  3.2644e-04  9.9090e-02  2.7891e-03  6.0623e-01  8.4227e-03  6.4313e-03  1:22:05 4917
    84  2.7232e-02  1.3171e-06  5.0928e-07  2.4626e-09  4.3612e-03  3.2186e-04  9.8808e-02  2.8408e-03  6.0451e-01  6.9935e-03  6.4766e-03  1:22:21 4916
    85  2.6973e-02  1.2928e-06  4.9499e-07  2.4084e-09  4.3360e-03  3.1759e-04  9.8486e-02  2.9628e-03  6.0273e-01  5.1161e-03  6.5099e-03  1:22:40 4915
    86  2.6898e-02  1.2690e-06  4.8230e-07  2.3580e-09  4.3136e-03  3.1353e-04  9.8158e-02  2.9785e-03  6.0094e-01  4.5728e-03  6.5399e-03  1:23:03 4914
    87  2.6609e-02  1.2436e-06  4.7052e-07  2.3055e-09  4.2919e-03  3.0947e-04  9.7820e-02  3.0099e-03  5.9913e-01  4.2488e-03  6.5678e-03  1:23:15 4913
    88  2.6551e-02  1.2226e-06  4.6026e-07  2.2723e-09  4.2696e-03  3.0557e-04  9.7493e-02  2.9578e-03  5.9737e-01  4.2250e-03  6.5956e-03  1:23:30 4912
  iter  continuity  x-velocity  y-velocity      energy           k       omega        Cm-1    cl-1-res        Cl-1    cd-1-res        Cd-1     time/iter
    89  2.5899e-02  1.2009e-06  4.5238e-07  2.2387e-09  4.2491e-03  3.0176e-04  9.7163e-02  2.9618e-03  5.9560e-01  3.6810e-03  6.6200e-03  1:24:51 4911
    90  2.5646e-02  1.1829e-06  4.4325e-07  2.2150e-09  4.2273e-03  2.9804e-04  9.6846e-02  2.9070e-03  5.9388e-01  3.7489e-03  6.6449e-03  1:26:05 4910
    91  2.4992e-02  1.1594e-06  4.3755e-07  2.1761e-09  4.2038e-03  2.9446e-04  9.6532e-02  2.8873e-03  5.9217e-01  3.9820e-03  6.6715e-03  1:27:04 4909
    92  2.4786e-02  1.1393e-06  4.2930e-07  2.1504e-09  4.1825e-03  2.9104e-04  9.6248e-02  2.7706e-03  5.9053e-01  5.1063e-03  6.7057e-03  1:26:16 4908
    93  2.4082e-02  1.1204e-06  4.2477e-07  2.1165e-09  4.1608e-03  2.8753e-04  9.5975e-02  2.7128e-03  5.8893e-01  5.0338e-03  6.7396e-03  1:27:03 4907
    94  2.3773e-02  1.1070e-06  4.1779e-07  2.0955e-09  4.1409e-03  2.8417e-04  9.5716e-02  2.6414e-03  5.8738e-01  4.8402e-03  6.7724e-03  1:29:05 4906
    95  2.3205e-02  1.0862e-06  4.1444e-07  2.0701e-09  4.1216e-03  2.8084e-04  9.5469e-02  2.5810e-03  5.8587e-01  5.0105e-03  6.8065e-03  1:30:52 4905
    96  2.3215e-02  1.0707e-06  4.0779e-07  2.0450e-09  4.1016e-03  2.7751e-04  9.5243e-02  2.4773e-03  5.8442e-01  5.4606e-03  6.8439e-03  1:33:27 4904
    97  2.2882e-02  1.0505e-06  4.0404e-07  2.0211e-09  4.0821e-03  2.7433e-04  9.5024e-02  2.4352e-03  5.8300e-01  5.4995e-03  6.8817e-03  1:35:28 4903
    98  2.2841e-02  1.0356e-06  3.9806e-07  2.0008e-09  4.0640e-03  2.7118e-04  9.4823e-02  2.3395e-03  5.8164e-01  5.6566e-03  6.9209e-03  1:38:25 4902
    99  2.2030e-02  1.0194e-06  3.9397e-07  1.9824e-09  4.0457e-03  2.6805e-04  9.4646e-02  2.2210e-03  5.8035e-01  6.5241e-03  6.9663e-03  1:40:49 4901
  iter  continuity  x-velocity  y-velocity      energy           k       omega        Cm-1    cl-1-res        Cl-1    cd-1-res        Cd-1     time/iter
   100  2.1762e-02  1.0067e-06  3.8760e-07  1.9558e-09  4.0298e-03  2.6508e-04  9.4474e-02  2.1699e-03  5.7910e-01  6.0660e-03  7.0089e-03  1:42:31 4900
   101  2.0825e-02  9.9063e-07  3.8202e-07  1.9309e-09  4.0144e-03  2.6203e-04  9.4323e-02  2.0622e-03  5.7790e-01  6.6440e-03  7.0557e-03  1:44:10 4899
   102  2.0322e-02  9.7614e-07  3.7550e-07  1.8995e-09  3.9987e-03  2.5906e-04  9.4194e-02  1.9393e-03  5.7679e-01  7.2199e-03  7.1070e-03  1:45:25 4898
   103  2.0071e-02  9.5459e-07  3.6685e-07  1.8635e-09  3.9839e-03  2.5625e-04  9.4082e-02  1.8326e-03  5.7573e-01  7.3896e-03  7.1600e-03  1:46:28 4897
   104  1.9515e-02  9.3541e-07  3.5851e-07  1.8190e-09  3.9683e-03  2.5344e-04  9.3987e-02  1.7269e-03  5.7474e-01  7.7791e-03  7.2161e-03  1:47:04 4896
   105  1.8828e-02  9.1906e-07  3.4847e-07  1.7737e-09  3.9545e-03  2.5080e-04  9.3915e-02  1.5944e-03  5.7382e-01  8.1581e-03  7.2754e-03  1:46:15 4895
   106  1.8001e-02  8.9892e-07  3.3753e-07  1.7310e-09  3.9392e-03  2.4825e-04  9.3855e-02  1.4987e-03  5.7296e-01  7.8179e-03  7.3328e-03  1:46:56 4894
   107  1.7221e-02  8.7666e-07  3.2630e-07  1.6742e-09  3.9275e-03  2.4572e-04  9.3802e-02  1.4236e-03  5.7215e-01  7.6026e-03  7.3889e-03  1:47:29 4893
   108  1.6442e-02  8.5265e-07  3.1528e-07  1.5958e-09  3.9165e-03  2.4324e-04  9.3755e-02  1.3486e-03  5.7138e-01  7.4045e-03  7.4441e-03  1:48:01 4892
   109  1.5779e-02  8.2911e-07  3.0344e-07  1.5176e-09  3.9049e-03  2.4081e-04  9.3715e-02  1.2763e-03  5.7065e-01  7.3597e-03  7.4993e-03  1:48:16 4891
   110  1.5091e-02  8.0507e-07  2.9008e-07  1.4423e-09  3.8936e-03  2.3844e-04  9.3682e-02  1.2040e-03  5.6997e-01  7.2261e-03  7.5538e-03  1:48:22 4890
  iter  continuity  x-velocity  y-velocity      energy           k       omega        Cm-1    cl-1-res        Cl-1    cd-1-res        Cd-1     time/iter
   111  1.4536e-02  7.8106e-07  2.7743e-07  1.3712e-09  3.8834e-03  2.3608e-04  9.3655e-02  1.1290e-03  5.6932e-01  7.1482e-03  7.6082e-03  1:47:08 4889
   112  1.3903e-02  7.5843e-07  2.6471e-07  1.3051e-09  3.8706e-03  2.3385e-04  9.3634e-02  1.0628e-03  5.6872e-01  7.0204e-03  7.6620e-03  1:44:53 4888
   113  1.3294e-02  7.3458e-07  2.5182e-07  1.2422e-09  3.8593e-03  2.3173e-04  9.3617e-02  9.9486e-04  5.6815e-01  6.8863e-03  7.7151e-03  1:43:17 4887
   114  1.2784e-02  7.0967e-07  2.4000e-07  1.1767e-09  3.8471e-03  2.2961e-04  9.3605e-02  9.3197e-04  5.6762e-01  6.7560e-03  7.7676e-03  1:43:10 4886
   115  1.2377e-02  6.8523e-07  2.2799e-07  1.1146e-09  3.8337e-03  2.2745e-04  9.3597e-02  8.7357e-04  5.6713e-01  6.6309e-03  7.8195e-03  1:43:06 4885
   116  1.1924e-02  6.6095e-07  2.1712e-07  1.0574e-09  3.8173e-03  2.2539e-04  9.3591e-02  8.1786e-04  5.6666e-01  6.4901e-03  7.8706e-03  1:43:08 4884
   117  1.1490e-02  6.3733e-07  2.0631e-07  1.0002e-09  3.8022e-03  2.2335e-04  9.3587e-02  7.6761e-04  5.6623e-01  6.2839e-03  7.9203e-03  1:41:43 4883
   118  1.1095e-02  6.1361e-07  1.9581e-07  9.4439e-10  3.7867e-03  2.2134e-04  9.3585e-02  7.1977e-04  5.6582e-01  6.1020e-03  7.9690e-03  1:39:13 4882
   119  1.0743e-02  5.9046e-07  1.8553e-07  8.9140e-10  3.7692e-03  2.1939e-04  9.3585e-02  6.7045e-04  5.6544e-01  5.9879e-03  8.0170e-03  1:37:18 4881
   120  1.0301e-02  5.6778e-07  1.7586e-07  8.4150e-10  3.7497e-03  2.1756e-04  9.3588e-02  6.2175e-04  5.6509e-01  5.8912e-03  8.0645e-03  1:35:35 4880
   121  9.9364e-03  5.4571e-07  1.6623e-07  7.9754e-10  3.7337e-03  2.1580e-04  9.3593e-02  5.7329e-04  5.6477e-01  5.7959e-03  8.1115e-03  1:32:59 4879
  iter  continuity  x-velocity  y-velocity      energy           k       omega        Cm-1    cl-1-res        Cl-1    cd-1-res        Cd-1     time/iter
   122  9.5679e-03  5.2424e-07  1.5728e-07  7.5699e-10  3.7174e-03  2.1405e-04  9.3600e-02  5.3008e-04  5.6447e-01  5.6906e-03  8.1579e-03  1:31:03 4878
   123  9.2430e-03  5.0349e-07  1.4874e-07  7.1959e-10  3.7007e-03  2.1230e-04  9.3609e-02  4.8720e-04  5.6419e-01  5.6066e-03  8.2039e-03  1:29:22 4877
   124  8.9935e-03  4.8310e-07  1.4043e-07  6.8423e-10  3.6823e-03  2.1066e-04  9.3619e-02  4.4635e-04  5.6394e-01  5.5153e-03  8.2494e-03  1:28:03 4876
   125  8.7587e-03  4.6325e-07  1.3266e-07  6.5644e-10  3.6698e-03  2.0906e-04  9.3631e-02  4.0482e-04  5.6371e-01  5.4029e-03  8.2942e-03  1:25:32 4875
   126  8.4717e-03  4.4416e-07  1.2562e-07  6.2836e-10  3.6567e-03  2.0753e-04  9.3644e-02  3.6627e-04  5.6351e-01  5.3246e-03  8.3386e-03  1:23:35 4874
   127  8.1581e-03  4.2516e-07  1.1886e-07  6.0243e-10  3.6432e-03  2.0601e-04  9.3661e-02  3.2502e-04  5.6333e-01  5.2813e-03  8.3829e-03  1:21:54 4873
   128  7.8316e-03  4.0699e-07  1.1273e-07  5.7828e-10  3.6289e-03  2.0458e-04  9.3680e-02  2.8236e-04  5.6317e-01  5.2535e-03  8.4272e-03  1:20:42 4872
   129  7.5870e-03  3.8963e-07  1.0701e-07  5.5658e-10  3.6178e-03  2.0320e-04  9.3703e-02  2.3905e-04  5.6303e-01  5.2312e-03  8.4715e-03  1:19:39 4871
   130  7.2690e-03  3.7315e-07  1.0182e-07  5.3841e-10  3.6118e-03  2.0191e-04  9.3730e-02  1.9323e-04  5.6292e-01  5.2181e-03  8.5159e-03  1:18:47 4870
   131  6.9830e-03  3.5756e-07  9.7210e-08  5.2240e-10  3.6059e-03  2.0063e-04  9.3761e-02  1.4846e-04  5.6284e-01  5.1919e-03  8.5603e-03  1:18:03 4869
   132  6.7360e-03  3.4315e-07  9.3205e-08  5.0683e-10  3.6011e-03  1.9943e-04  9.3796e-02  1.0693e-04  5.6278e-01  5.1438e-03  8.6046e-03  1:17:35 4868
  iter  continuity  x-velocity  y-velocity      energy           k       omega        Cm-1    cl-1-res        Cl-1    cd-1-res        Cd-1     time/iter
   133  6.5718e-03  3.2948e-07  8.9815e-08  4.9218e-10  3.5963e-03  1.9832e-04  9.3834e-02  6.8196e-05  5.6274e-01  5.0801e-03  8.6485e-03  1:17:12 4867
   134  6.4196e-03  3.1665e-07  8.6818e-08  4.7907e-10  3.6005e-03  1.9737e-04  9.3872e-02  3.5432e-05  5.6272e-01  4.9765e-03  8.6918e-03  1:16:58 4866
   135  6.3176e-03  3.0508e-07  8.4210e-08  4.6780e-10  3.6132e-03  1.9646e-04  9.3912e-02  5.3337e-06  5.6272e-01  4.8539e-03  8.7342e-03  1:16:31 4865
   136  6.2672e-03  2.9436e-07  8.1908e-08  4.5873e-10  3.6318e-03  1.9566e-04  9.3951e-02  1.8042e-05  5.6273e-01  4.7049e-03  8.7755e-03  1:16:19 4864
   137  6.2717e-03  2.8492e-07  7.9653e-08  4.5199e-10  3.6609e-03  1.9509e-04  9.3989e-02  4.2194e-05  5.6275e-01  4.5964e-03  8.8160e-03  1:16:03 4863
   138  6.2573e-03  2.7679e-07  7.7639e-08  4.4855e-10  3.6993e-03  1.9468e-04  9.4028e-02  6.5022e-05  5.6279e-01  4.4776e-03  8.8557e-03  1:20:05 4862
   139  6.2220e-03  2.7003e-07  7.5672e-08  4.4889e-10  3.7576e-03  1.9438e-04  9.4067e-02  8.9846e-05  5.6284e-01  4.3849e-03  8.8947e-03  1:19:09 4861
   140  6.1846e-03  2.6491e-07  7.3960e-08  4.5381e-10  3.8351e-03  1.9424e-04  9.4109e-02  1.1998e-04  5.6291e-01  4.3324e-03  8.9334e-03  1:18:20 4860
   141  6.1554e-03  2.6166e-07  7.2505e-08  4.6231e-10  3.9282e-03  1.9414e-04  9.4154e-02  1.5422e-04  5.6299e-01  4.3260e-03  8.9722e-03  1:17:48 4859
   142  6.0997e-03  2.5994e-07  7.1353e-08  4.7482e-10  4.0332e-03  1.9419e-04  9.4205e-02  1.9351e-04  5.6310e-01  4.3566e-03  9.0114e-03  1:17:12 4858
   143  5.9830e-03  2.5980e-07  7.0670e-08  4.8968e-10  4.1468e-03  1.9420e-04  9.4262e-02  2.3677e-04  5.6324e-01  4.3980e-03  9.0512e-03  1:16:44 4857
  iter  continuity  x-velocity  y-velocity      energy           k       omega        Cm-1    cl-1-res        Cl-1    cd-1-res        Cd-1     time/iter
   144  5.8961e-03  2.6097e-07  7.0464e-08  5.1008e-10  4.2550e-03  1.9395e-04  9.4326e-02  2.8164e-04  5.6339e-01  4.4419e-03  9.0916e-03  1:16:24 4856
   145  5.8236e-03  2.6344e-07  7.0833e-08  5.3266e-10  4.3378e-03  1.9328e-04  9.4396e-02  3.2648e-04  5.6358e-01  4.4716e-03  9.1325e-03  1:16:11 4855
   146  5.8150e-03  2.6692e-07  7.1848e-08  5.5505e-10  4.3849e-03  1.9221e-04  9.4471e-02  3.6520e-04  5.6378e-01  4.4595e-03  9.1734e-03  1:16:16 4854
   147  5.8640e-03  2.7201e-07  7.3326e-08  5.6873e-10  4.4033e-03  1.9078e-04  9.4550e-02  4.0114e-04  5.6401e-01  4.4090e-03  9.2140e-03  1:16:04 4853
   148  5.9528e-03  2.7892e-07  7.5206e-08  5.9493e-10  4.4058e-03  1.8960e-04  9.4630e-02  4.2833e-04  5.6425e-01  4.3076e-03  9.2539e-03  1:16:18 4852
   149  6.0384e-03  2.8695e-07  7.7472e-08  6.0997e-10  4.3939e-03  1.8835e-04  9.4710e-02  4.4934e-04  5.6451e-01  4.1662e-03  9.2926e-03  1:16:04 4851
   150  6.1135e-03  2.9516e-07  7.9815e-08  6.3702e-10  4.3783e-03  1.8734e-04  9.4789e-02  4.6429e-04  5.6477e-01  4.0097e-03  9.3300e-03  1:16:25 4850
   151  6.1182e-03  3.0331e-07  8.2207e-08  6.4867e-10  4.3619e-03  1.8625e-04  9.4866e-02  4.7510e-04  5.6504e-01  3.8403e-03  9.3660e-03  1:16:13 4849
   152  6.1469e-03  3.1183e-07  8.4530e-08  6.7406e-10  4.3451e-03  1.8542e-04  9.4941e-02  4.8496e-04  5.6531e-01  3.6720e-03  9.4005e-03  1:16:33 4848
   153  6.1822e-03  3.1993e-07  8.6902e-08  6.8161e-10  4.3348e-03  1.8453e-04  9.5013e-02  4.9457e-04  5.6559e-01  3.5156e-03  9.4336e-03  1:16:47 4847
   154  6.1918e-03  3.2769e-07  8.9070e-08  6.9315e-10  4.3268e-03  1.8383e-04  9.5084e-02  5.0358e-04  5.6588e-01  3.3708e-03  9.4655e-03  1:16:21 4846
  iter  continuity  x-velocity  y-velocity      energy           k       omega        Cm-1    cl-1-res        Cl-1    cd-1-res        Cd-1     time/iter
   155  6.1722e-03  3.3524e-07  9.1210e-08  7.2843e-10  4.3263e-03  1.8337e-04  9.5155e-02  5.1503e-04  5.6617e-01  3.2095e-03  9.4960e-03  1:15:10 4845
   156  6.0911e-03  3.4222e-07  9.3165e-08  7.3509e-10  4.3366e-03  1.8289e-04  9.5225e-02  5.2444e-04  5.6646e-01  3.1375e-03  9.5259e-03  1:15:40 4844
   157  5.9830e-03  3.4868e-07  9.5043e-08  7.4589e-10  4.3432e-03  1.8246e-04  9.5295e-02  5.3941e-04  5.6677e-01  3.0889e-03  9.5554e-03  1:15:59 4843
   158  5.8891e-03  3.5460e-07  9.6828e-08  7.5583e-10  4.3211e-03  1.8184e-04  9.5368e-02  5.5585e-04  5.6708e-01  3.0370e-03  9.5845e-03  1:16:18 4842
   159  5.8794e-03  3.6019e-07  9.8536e-08  7.6746e-10  4.2338e-03  1.8100e-04  9.5442e-02  5.7404e-04  5.6741e-01  3.0076e-03  9.6134e-03  1:16:25 4841
   160  5.9084e-03  3.6317e-07  1.0005e-07  7.7544e-10  4.1425e-03  1.8029e-04  9.5520e-02  5.9559e-04  5.6775e-01  3.0098e-03  9.6425e-03  1:16:24 4840
   161  5.9728e-03  3.6447e-07  1.0146e-07  7.8080e-10  4.0712e-03  1.7983e-04  9.5600e-02  6.1804e-04  5.6810e-01  2.9748e-03  9.6712e-03  1:15:14 4839
   162  6.0314e-03  3.6548e-07  1.0295e-07  7.8185e-10  4.0339e-03  1.7938e-04  9.5686e-02  6.4444e-04  5.6847e-01  3.0063e-03  9.7004e-03  1:14:20 4838
   163  6.0735e-03  3.6682e-07  1.0452e-07  7.8344e-10  4.0157e-03  1.7899e-04  9.5776e-02  6.7239e-04  5.6885e-01  3.0599e-03  9.7302e-03  1:13:34 4837
   164  6.0883e-03  3.6865e-07  1.0620e-07  7.8610e-10  4.0158e-03  1.7855e-04  9.5872e-02  7.0360e-04  5.6925e-01  3.1307e-03  9.7607e-03  1:12:57 4836
   165  6.0895e-03  3.6988e-07  1.0814e-07  7.8796e-10  4.0254e-03  1.7824e-04  9.5974e-02  7.3517e-04  5.6967e-01  3.2316e-03  9.7924e-03  1:13:54 4835
  iter  continuity  x-velocity  y-velocity      energy           k       omega        Cm-1    cl-1-res        Cl-1    cd-1-res        Cd-1     time/iter
   166  6.0520e-03  3.7037e-07  1.1006e-07  7.8931e-10  4.0287e-03  1.7741e-04  9.6080e-02  7.6464e-04  5.7010e-01  3.2778e-03  9.8246e-03  1:14:40 4834
   167  5.9917e-03  3.6918e-07  1.1228e-07  7.8939e-10  4.0139e-03  1.7633e-04  9.6190e-02  7.8996e-04  5.7055e-01  3.2796e-03  9.8569e-03  1:15:15 4833
   168  5.9233e-03  3.6758e-07  1.1459e-07  7.8241e-10  3.9806e-03  1.7479e-04  9.6302e-02  8.0792e-04  5.7102e-01  3.2372e-03  9.8889e-03  1:15:43 4832
   169  5.8632e-03  3.6427e-07  1.1686e-07  7.7513e-10  3.9202e-03  1.7294e-04  9.6413e-02  8.2010e-04  5.7148e-01  3.1117e-03  9.9198e-03  1:14:35 4831
   170  5.8208e-03  3.5947e-07  1.1916e-07  7.6009e-10  3.8578e-03  1.7107e-04  9.6523e-02  8.2800e-04  5.7196e-01  3.0394e-03  9.9500e-03  1:15:04 4830
   171  5.7622e-03  3.5437e-07  1.2132e-07  7.4415e-10  3.7734e-03  1.6885e-04  9.6631e-02  8.3203e-04  5.7243e-01  2.8926e-03  9.9789e-03  1:13:58 4829
   172  5.6889e-03  3.4952e-07  1.2332e-07  7.2698e-10  3.7014e-03  1.6674e-04  9.6735e-02  8.3162e-04  5.7291e-01  2.7475e-03  1.0006e-02  1:13:07 4828
   173  5.6048e-03  3.4510e-07  1.2524e-07  7.1149e-10  3.6183e-03  1.6453e-04  9.6837e-02  8.2730e-04  5.7339e-01  2.5882e-03  1.0032e-02  1:12:00 4827
   174  5.4903e-03  3.4159e-07  1.2687e-07  7.1519e-10  3.5447e-03  1.6262e-04  9.6934e-02  8.2195e-04  5.7386e-01  2.4364e-03  1.0057e-02  1:11:35 4826
   175  5.3499e-03  3.3864e-07  1.2824e-07  6.9124e-10  3.4740e-03  1.6056e-04  9.7028e-02  8.1410e-04  5.7432e-01  2.2740e-03  1.0080e-02  1:10:43 4825
   176  5.2387e-03  3.3550e-07  1.2950e-07  6.9253e-10  3.4051e-03  1.5857e-04  9.7117e-02  8.0496e-04  5.7479e-01  2.1241e-03  1.0101e-02  1:10:10 4824
  iter  continuity  x-velocity  y-velocity      energy           k       omega        Cm-1    cl-1-res        Cl-1    cd-1-res        Cd-1     time/iter
   177  5.1552e-03  3.3269e-07  1.3032e-07  6.8630e-10  3.3390e-03  1.5663e-04  9.7203e-02  7.9708e-04  5.7525e-01  2.0023e-03  1.0121e-02  1:09:34 4823
   178  5.0901e-03  3.3030e-07  1.3094e-07  6.7822e-10  3.2759e-03  1.5465e-04  9.7287e-02  7.8951e-04  5.7570e-01  1.8872e-03  1.0141e-02  1:09:18 4822
   179  5.0510e-03  3.2799e-07  1.3130e-07  6.6951e-10  3.2170e-03  1.5285e-04  9.7368e-02  7.8347e-04  5.7615e-01  1.7925e-03  1.0159e-02  1:08:50 4821
   180  5.0008e-03  3.2605e-07  1.3143e-07  6.6150e-10  3.1587e-03  1.5101e-04  9.7449e-02  7.8339e-04  5.7660e-01  1.7471e-03  1.0177e-02  1:08:41 4820
   181  4.9255e-03  3.2437e-07  1.3141e-07  6.5457e-10  3.1032e-03  1.4924e-04  9.7531e-02  7.8728e-04  5.7706e-01  1.7335e-03  1.0194e-02  1:08:25 4819
   182  4.8441e-03  3.2277e-07  1.3125e-07  6.4810e-10  3.0504e-03  1.4756e-04  9.7615e-02  7.9588e-04  5.7752e-01  1.7531e-03  1.0212e-02  1:08:19 4818
   183  4.7698e-03  3.2130e-07  1.3102e-07  6.4245e-10  3.0006e-03  1.4582e-04  9.7703e-02  8.1005e-04  5.7799e-01  1.8078e-03  1.0231e-02  1:08:07 4817
   184  4.7144e-03  3.1953e-07  1.3092e-07  6.3675e-10  2.9531e-03  1.4418e-04  9.7796e-02  8.2779e-04  5.7846e-01  1.8857e-03  1.0250e-02  1:07:57 4816
   185  4.6489e-03  3.1800e-07  1.3082e-07  6.3110e-10  2.9081e-03  1.4257e-04  9.7894e-02  8.4829e-04  5.7896e-01  1.9715e-03  1.0270e-02  1:07:56 4815
   186  4.5903e-03  3.1682e-07  1.3088e-07  6.2674e-10  2.8644e-03  1.4100e-04  9.7997e-02  8.6793e-04  5.7946e-01  2.0460e-03  1.0291e-02  1:07:50 4814
   187  4.5591e-03  3.1549e-07  1.3132e-07  6.2281e-10  2.8229e-03  1.3955e-04  9.8102e-02  8.8188e-04  5.7997e-01  2.0787e-03  1.0313e-02  1:07:50 4813
  iter  continuity  x-velocity  y-velocity      energy           k       omega        Cm-1    cl-1-res        Cl-1    cd-1-res        Cd-1     time/iter
   188  4.5282e-03  3.1460e-07  1.3161e-07  6.1895e-10  2.7839e-03  1.3819e-04  9.8209e-02  8.9134e-04  5.8049e-01  2.0761e-03  1.0334e-02  1:07:35 4812
   189  4.4984e-03  3.1388e-07  1.3200e-07  6.1565e-10  2.7471e-03  1.3690e-04  9.8316e-02  8.9516e-04  5.8101e-01  2.0354e-03  1.0355e-02  1:07:30 4811
   190  4.4798e-03  3.1308e-07  1.3259e-07  6.1210e-10  2.7112e-03  1.3559e-04  9.8420e-02  8.9154e-04  5.8153e-01  1.9457e-03  1.0375e-02  1:07:23 4810
   191  4.4701e-03  3.1235e-07  1.3290e-07  6.0817e-10  2.6776e-03  1.3434e-04  9.8520e-02  8.8352e-04  5.8204e-01  1.8292e-03  1.0394e-02  1:07:25 4809
   192  4.4430e-03  3.1161e-07  1.3311e-07  6.0416e-10  2.6448e-03  1.3313e-04  9.8617e-02  8.7218e-04  5.8255e-01  1.6920e-03  1.0412e-02  1:07:16 4808
   193  4.4094e-03  3.1080e-07  1.3324e-07  5.9996e-10  2.6136e-03  1.3195e-04  9.8708e-02  8.5580e-04  5.8305e-01  1.5397e-03  1.0428e-02  1:07:24 4807
   194  4.3673e-03  3.1017e-07  1.3316e-07  5.9526e-10  2.5848e-03  1.3086e-04  9.8794e-02  8.3831e-04  5.8354e-01  1.3851e-03  1.0443e-02  1:07:30 4806
   195  4.3249e-03  3.0928e-07  1.3286e-07  5.9039e-10  2.5566e-03  1.2975e-04  9.8874e-02  8.1744e-04  5.8401e-01  1.2210e-03  1.0455e-02  1:07:21 4805
   196  4.2823e-03  3.0793e-07  1.3234e-07  5.8534e-10  2.5292e-03  1.2863e-04  9.8948e-02  7.9643e-04  5.8448e-01  1.0729e-03  1.0467e-02  1:07:17 4804
   197  4.2423e-03  3.0648e-07  1.3151e-07  5.8015e-10  2.5028e-03  1.2747e-04  9.9018e-02  7.7733e-04  5.8493e-01  9.5558e-04  1.0477e-02  1:07:17 4803
   198  4.1921e-03  3.0492e-07  1.3046e-07  5.7502e-10  2.4771e-03  1.2623e-04  9.9085e-02  7.6329e-04  5.8538e-01  8.6206e-04  1.0486e-02  1:07:11 4802
  iter  continuity  x-velocity  y-velocity      energy           k       omega        Cm-1    cl-1-res        Cl-1    cd-1-res        Cd-1     time/iter
   199  4.1299e-03  3.0298e-07  1.2926e-07  5.6920e-10  2.4519e-03  1.2506e-04  9.9151e-02  7.5521e-04  5.8582e-01  8.2283e-04  1.0494e-02  1:07:11 4801
   200  4.0518e-03  3.0093e-07  1.2800e-07  5.6313e-10  2.4276e-03  1.2385e-04  9.9218e-02  7.5231e-04  5.8626e-01  8.3031e-04  1.0503e-02  1:07:17 4800
   201  3.9809e-03  2.9892e-07  1.2648e-07  5.5745e-10  2.4044e-03  1.2258e-04  9.9287e-02  7.5527e-04  5.8671e-01  8.7494e-04  1.0512e-02  1:07:12 4799
   202  3.9097e-03  2.9692e-07  1.2501e-07  5.5231e-10  2.3820e-03  1.2137e-04  9.9359e-02  7.6237e-04  5.8715e-01  9.4707e-04  1.0522e-02  1:07:09 4798
   203  3.8518e-03  2.9498e-07  1.2376e-07  5.4645e-10  2.3601e-03  1.2015e-04  9.9436e-02  7.7256e-04  5.8761e-01  1.0381e-03  1.0533e-02  1:07:08 4797
   204  3.7956e-03  2.9319e-07  1.2262e-07  5.4130e-10  2.3392e-03  1.1889e-04  9.9517e-02  7.8542e-04  5.8807e-01  1.1412e-03  1.0545e-02  1:07:09 4796
   205  3.7512e-03  2.9159e-07  1.2152e-07  5.3681e-10  2.3188e-03  1.1762e-04  9.9603e-02  8.0056e-04  5.8854e-01  1.2453e-03  1.0558e-02  1:07:14 4795
   206  3.7080e-03  2.9012e-07  1.2064e-07  5.3319e-10  2.2990e-03  1.1636e-04  9.9694e-02  8.1550e-04  5.8902e-01  1.3394e-03  1.0572e-02  1:07:16 4794
   207  3.6653e-03  2.8879e-07  1.2008e-07  5.2991e-10  2.2795e-03  1.1506e-04  9.9789e-02  8.2852e-04  5.8951e-01  1.4099e-03  1.0587e-02  1:50:36 4793
   208  3.6285e-03  2.8757e-07  1.1983e-07  5.2748e-10  2.2604e-03  1.1372e-04  9.9886e-02  8.3820e-04  5.9001e-01  1.4500e-03  1.0603e-02  1:41:58 4792
   209  3.5981e-03  2.8660e-07  1.1966e-07  5.2555e-10  2.2422e-03  1.1244e-04  9.9984e-02  8.4356e-04  5.9050e-01  1.4563e-03  1.0618e-02  1:34:56 4791
  iter  continuity  x-velocity  y-velocity      energy           k       omega        Cm-1    cl-1-res        Cl-1    cd-1-res        Cd-1     time/iter
   210  3.5684e-03  2.8569e-07  1.1958e-07  5.2355e-10  2.2240e-03  1.1125e-04  1.0008e-01  8.4415e-04  5.9100e-01  1.4241e-03  1.0633e-02  1:29:27 4790
   211  3.5395e-03  2.8490e-07  1.1962e-07  5.2188e-10  2.2063e-03  1.1013e-04  1.0018e-01  8.3951e-04  5.9150e-01  1.3542e-03  1.0648e-02  1:24:54 4789
   212  3.5130e-03  2.8421e-07  1.1977e-07  5.2051e-10  2.1892e-03  1.0906e-04  1.0027e-01  8.3075e-04  5.9199e-01  1.2581e-03  1.0661e-02  1:23:24 4788
   213  3.4946e-03  2.8350e-07  1.1987e-07  5.1871e-10  2.1719e-03  1.0797e-04  1.0036e-01  8.1819e-04  5.9248e-01  1.1388e-03  1.0673e-02  1:20:02 4787
   214  3.4718e-03  2.8276e-07  1.1988e-07  5.1680e-10  2.1550e-03  1.0694e-04  1.0044e-01  8.0256e-04  5.9295e-01  1.0080e-03  1.0684e-02  1:17:16 4786
   215  3.4490e-03  2.8206e-07  1.1971e-07  5.1466e-10  2.1385e-03  1.0595e-04  1.0052e-01  7.8497e-04  5.9342e-01  8.7297e-04  1.0693e-02  1:15:17 4785
   216  3.4240e-03  2.8136e-07  1.1940e-07  5.1257e-10  2.1221e-03  1.0499e-04  1.0059e-01  7.6598e-04  5.9387e-01  7.4058e-04  1.0701e-02  1:13:38 4784
   217  3.3874e-03  2.8060e-07  1.1897e-07  5.0999e-10  2.1058e-03  1.0403e-04  1.0066e-01  7.4658e-04  5.9432e-01  6.1496e-04  1.0708e-02  1:12:11 4783
   218  3.3604e-03  2.7980e-07  1.1838e-07  5.0681e-10  2.0902e-03  1.0303e-04  1.0073e-01  7.2762e-04  5.9475e-01  5.0507e-04  1.0713e-02  1:11:04 4782
   219  3.3376e-03  2.7882e-07  1.1763e-07  5.0346e-10  2.0750e-03  1.0202e-04  1.0079e-01  7.1008e-04  5.9517e-01  4.1487e-04  1.0718e-02  1:10:02 4781
   220  3.3081e-03  2.7775e-07  1.1665e-07  4.9941e-10  2.0600e-03  1.0103e-04  1.0084e-01  6.9499e-04  5.9558e-01  3.5057e-04  1.0722e-02  1:09:31 4780
  iter  continuity  x-velocity  y-velocity      energy           k       omega        Cm-1    cl-1-res        Cl-1    cd-1-res        Cd-1     time/iter
   221  3.2756e-03  2.7667e-07  1.1549e-07  4.9564e-10  2.0449e-03  1.0008e-04  1.0090e-01  6.8302e-04  5.9599e-01  3.1402e-04  1.0725e-02  1:08:52 4779
   222  3.2356e-03  2.7555e-07  1.1423e-07  4.9170e-10  2.0298e-03  9.9143e-05  1.0095e-01  6.7462e-04  5.9639e-01  3.0685e-04  1.0728e-02  1:08:30 4778
   223  3.2033e-03  2.7442e-07  1.1292e-07  4.8719e-10  2.0149e-03  9.8200e-05  1.0101e-01  6.7009e-04  5.9679e-01  3.2821e-04  1.0732e-02  1:08:00 4777
   224  3.1797e-03  2.7320e-07  1.1160e-07  4.8272e-10  2.0003e-03  9.7237e-05  1.0106e-01  6.6914e-04  5.9719e-01  3.7259e-04  1.0736e-02  1:07:46 4776
   225  3.1493e-03  2.7194e-07  1.1028e-07  4.7778e-10  1.9855e-03  9.6235e-05  1.0112e-01  6.7141e-04  5.9760e-01  4.3721e-04  1.0740e-02  1:07:30 4775
   226  3.1100e-03  2.7057e-07  1.0895e-07  4.7303e-10  1.9703e-03  9.5220e-05  1.0119e-01  6.7623e-04  5.9800e-01  5.1288e-04  1.0746e-02  1:07:21 4774
   227  3.0647e-03  2.6915e-07  1.0768e-07  4.6832e-10  1.9554e-03  9.4236e-05  1.0125e-01  6.8295e-04  5.9841e-01  5.9658e-04  1.0752e-02  1:07:14 4773
   228  3.0142e-03  2.6769e-07  1.0655e-07  4.6389e-10  1.9402e-03  9.3249e-05  1.0132e-01  6.9095e-04  5.9882e-01  6.8115e-04  1.0760e-02  1:06:59 4772
   229  2.9600e-03  2.6621e-07  1.0561e-07  4.5989e-10  1.9252e-03  9.2258e-05  1.0139e-01  6.9960e-04  5.9924e-01  7.6261e-04  1.0768e-02  1:06:54 4771
   230  2.9109e-03  2.6473e-07  1.0486e-07  4.5647e-10  1.9101e-03  9.1279e-05  1.0147e-01  7.0836e-04  5.9967e-01  8.3636e-04  1.0777e-02  1:06:41 4770
   231  2.8738e-03  2.6333e-07  1.0427e-07  4.5359e-10  1.8949e-03  9.0280e-05  1.0155e-01  7.1676e-04  6.0010e-01  8.9874e-04  1.0787e-02  1:06:39 4769
  iter  continuity  x-velocity  y-velocity      energy           k       omega        Cm-1    cl-1-res        Cl-1    cd-1-res        Cd-1     time/iter
   232  2.8429e-03  2.6193e-07  1.0383e-07  4.5120e-10  1.8797e-03  8.9326e-05  1.0163e-01  7.2422e-04  6.0053e-01  9.4847e-04  1.0797e-02  1:06:35 4768
   233  2.8141e-03  2.6062e-07  1.0354e-07  4.4946e-10  1.8643e-03  8.8411e-05  1.0171e-01  7.3037e-04  6.0097e-01  9.8422e-04  1.0808e-02  1:06:17 4767
   234  2.7816e-03  2.5941e-07  1.0341e-07  4.4799e-10  1.8492e-03  8.7511e-05  1.0180e-01  7.3501e-04  6.0141e-01  1.0025e-03  1.0818e-02  1:06:16 4766
   235  2.7522e-03  2.5829e-07  1.0344e-07  4.4700e-10  1.8343e-03  8.6632e-05  1.0188e-01  7.3798e-04  6.0186e-01  1.0058e-03  1.0829e-02  1:06:03 4765
   236  2.7290e-03  2.5727e-07  1.0362e-07  4.4648e-10  1.8193e-03  8.5770e-05  1.0197e-01  7.3931e-04  6.0230e-01  9.9579e-04  1.0840e-02  1:06:05 4764
   237  2.7172e-03  2.5631e-07  1.0390e-07  4.4646e-10  1.8043e-03  8.4938e-05  1.0205e-01  7.3904e-04  6.0275e-01  9.7404e-04  1.0851e-02  1:06:14 4763
   238  2.7103e-03  2.5545e-07  1.0427e-07  4.4662e-10  1.7893e-03  8.4124e-05  1.0214e-01  7.3737e-04  6.0319e-01  9.4382e-04  1.0861e-02  1:06:05 4762
   239  2.6970e-03  2.5470e-07  1.0467e-07  4.4663e-10  1.7745e-03  8.3348e-05  1.0222e-01  7.3441e-04  6.0363e-01  9.0586e-04  1.0871e-02  1:06:00 4761
   240  2.6862e-03  2.5403e-07  1.0508e-07  4.4633e-10  1.7601e-03  8.2561e-05  1.0230e-01  7.3028e-04  6.0408e-01  8.6200e-04  1.0880e-02  1:06:08 4760
   241  2.6848e-03  2.5344e-07  1.0549e-07  4.4612e-10  1.7457e-03  8.1761e-05  1.0238e-01  7.2814e-04  6.0452e-01  8.1029e-04  1.0889e-02  1:04:57 4759
   242  2.6775e-03  2.5294e-07  1.0588e-07  4.4516e-10  1.7313e-03  8.0962e-05  1.0246e-01  7.2137e-04  6.0495e-01  7.5320e-04  1.0897e-02  1:03:56 4758
  iter  continuity  x-velocity  y-velocity      energy           k       omega        Cm-1    cl-1-res        Cl-1    cd-1-res        Cd-1     time/iter
   243  2.6673e-03  2.5254e-07  1.0624e-07  4.4432e-10  1.7171e-03  8.0196e-05  1.0254e-01  7.1468e-04  6.0539e-01  7.0963e-04  1.0905e-02  1:03:07 4757
   244  2.6514e-03  2.5222e-07  1.0655e-07  4.4382e-10  1.7032e-03  7.9461e-05  1.0262e-01  7.0834e-04  6.0581e-01  6.7104e-04  1.0912e-02  1:02:28 4756
   245  2.6428e-03  2.5196e-07  1.0680e-07  4.4350e-10  1.6896e-03  7.8754e-05  1.0269e-01  7.0248e-04  6.0624e-01  6.3717e-04  1.0919e-02  1:02:04 4755
   246  2.6284e-03  2.5175e-07  1.0699e-07  4.4281e-10  1.6764e-03  7.8041e-05  1.0277e-01  6.9718e-04  6.0666e-01  6.0803e-04  1.0926e-02  1:01:46 4754
   247  2.6079e-03  2.5155e-07  1.0710e-07  4.4193e-10  1.6632e-03  7.7367e-05  1.0284e-01  6.9258e-04  6.0708e-01  5.8775e-04  1.0932e-02  1:01:14 4753
   248  2.5884e-03  2.5134e-07  1.0712e-07  4.4061e-10  1.6502e-03  7.6703e-05  1.0291e-01  6.8871e-04  6.0750e-01  5.7327e-04  1.0938e-02  1:00:58 4752
   249  2.5659e-03  2.5113e-07  1.0708e-07  4.3917e-10  1.6374e-03  7.6048e-05  1.0298e-01  6.8546e-04  6.0792e-01  5.6360e-04  1.0945e-02  1:04:48 4751
   250  2.5407e-03  2.5087e-07  1.0697e-07  4.3742e-10  1.6248e-03  7.5386e-05  1.0306e-01  6.8277e-04  6.0833e-01  5.6004e-04  1.0951e-02  1:03:52 4750
   251  2.5153e-03  2.5062e-07  1.0681e-07  4.3593e-10  1.6125e-03  7.4688e-05  1.0313e-01  6.8070e-04  6.0875e-01  5.6092e-04  1.0957e-02  1:03:07 4749
   252  2.4929e-03  2.5035e-07  1.0661e-07  4.3441e-10  1.6004e-03  7.3990e-05  1.0320e-01  6.7920e-04  6.0916e-01  5.6563e-04  1.0963e-02  1:02:27 4748
   253  2.4779e-03  2.5006e-07  1.0639e-07  4.3277e-10  1.5885e-03  7.3304e-05  1.0327e-01  6.7812e-04  6.0958e-01  5.7294e-04  1.0969e-02  1:02:10 4747
  iter  continuity  x-velocity  y-velocity      energy           k       omega        Cm-1    cl-1-res        Cl-1    cd-1-res        Cd-1     time/iter
   254  2.4618e-03  2.4973e-07  1.0612e-07  4.3072e-10  1.5767e-03  7.2616e-05  1.0335e-01  6.7733e-04  6.0999e-01  5.8167e-04  1.0976e-02  1:01:36 4746
   255  2.4442e-03  2.4934e-07  1.0582e-07  4.2863e-10  1.5650e-03  7.1934e-05  1.0342e-01  6.7680e-04  6.1040e-01  5.8965e-04  1.0982e-02  1:01:16 4745
   256  2.4344e-03  2.4890e-07  1.0550e-07  4.2634e-10  1.5536e-03  7.1253e-05  1.0349e-01  6.7596e-04  6.1081e-01  5.9684e-04  1.0989e-02  1:01:03 4744
   257  2.4221e-03  2.4843e-07  1.0518e-07  4.2410e-10  1.5424e-03  7.0601e-05  1.0357e-01  6.7517e-04  6.1123e-01  6.0259e-04  1.0995e-02  1:00:51 4743
   258  2.4081e-03  2.4790e-07  1.0484e-07  4.2179e-10  1.5313e-03  6.9960e-05  1.0364e-01  6.7432e-04  6.1164e-01  6.0773e-04  1.1002e-02  1:00:39 4742
   259  2.3944e-03  2.4734e-07  1.0450e-07  4.1979e-10  1.5204e-03  6.9341e-05  1.0372e-01  6.7328e-04  6.1205e-01  6.0947e-04  1.1009e-02  1:00:23 4741
   260  2.3719e-03  2.4678e-07  1.0416e-07  4.1753e-10  1.5096e-03  6.8722e-05  1.0379e-01  6.7209e-04  6.1246e-01  6.0880e-04  1.1016e-02  1:00:26 4740
   261  2.3559e-03  2.4623e-07  1.0382e-07  4.1524e-10  1.4990e-03  6.8113e-05  1.0387e-01  6.7056e-04  6.1287e-01  6.0550e-04  1.1022e-02  1:00:18 4739
   262  2.3354e-03  2.4566e-07  1.0347e-07  4.1288e-10  1.4886e-03  6.7533e-05  1.0394e-01  6.6873e-04  6.1328e-01  5.9958e-04  1.1029e-02  1:00:16 4738
   263  2.3098e-03  2.4507e-07  1.0312e-07  4.1080e-10  1.4784e-03  6.6937e-05  1.0402e-01  6.6661e-04  6.1369e-01  5.9110e-04  1.1035e-02  1:00:05 4737
   264  2.2828e-03  2.4445e-07  1.0278e-07  4.0857e-10  1.4682e-03  6.6342e-05  1.0409e-01  6.6427e-04  6.1410e-01  5.8116e-04  1.1042e-02  0:59:51 4736
  iter  continuity  x-velocity  y-velocity      energy           k       omega        Cm-1    cl-1-res        Cl-1    cd-1-res        Cd-1     time/iter
   265  2.2521e-03  2.4380e-07  1.0243e-07  4.0661e-10  1.4581e-03  6.5769e-05  1.0417e-01  6.6173e-04  6.1451e-01  5.6949e-04  1.1048e-02  0:59:51 4735
   266  2.2276e-03  2.4314e-07  1.0208e-07  4.0438e-10  1.4482e-03  6.5219e-05  1.0424e-01  6.5905e-04  6.1491e-01  5.5768e-04  1.1054e-02  0:59:46 4734
   267  2.2022e-03  2.4247e-07  1.0171e-07  4.0224e-10  1.4385e-03  6.4671e-05  1.0432e-01  6.5604e-04  6.1532e-01  5.4611e-04  1.1060e-02  0:59:54 4733
   268  2.1788e-03  2.4178e-07  1.0135e-07  4.0028e-10  1.4289e-03  6.4125e-05  1.0439e-01  6.5313e-04  6.1572e-01  5.3432e-04  1.1066e-02  0:59:42 4732
   269  2.1571e-03  2.4108e-07  1.0099e-07  3.9842e-10  1.4193e-03  6.3576e-05  1.0446e-01  6.5011e-04  6.1612e-01  5.2072e-04  1.1072e-02  0:59:40 4731
   270  2.1377e-03  2.4036e-07  1.0062e-07  3.9626e-10  1.4098e-03  6.3039e-05  1.0453e-01  6.4699e-04  6.1652e-01  5.0840e-04  1.1078e-02  0:59:48 4730
   271  2.1196e-03  2.3964e-07  1.0023e-07  3.9409e-10  1.4004e-03  6.2530e-05  1.0461e-01  6.4383e-04  6.1692e-01  4.9525e-04  1.1083e-02  0:59:41 4729
   272  2.1016e-03  2.3892e-07  9.9844e-08  3.9201e-10  1.3911e-03  6.2024e-05  1.0468e-01  6.4061e-04  6.1731e-01  4.8292e-04  1.1088e-02  0:59:40 4728
   273  2.0842e-03  2.3818e-07  9.9448e-08  3.8992e-10  1.3820e-03  6.1515e-05  1.0475e-01  6.3736e-04  6.1771e-01  4.7177e-04  1.1094e-02  0:59:42 4727
   274  2.0634e-03  2.3742e-07  9.9045e-08  3.8812e-10  1.3730e-03  6.1010e-05  1.0482e-01  6.3408e-04  6.1810e-01  4.6039e-04  1.1099e-02  0:59:34 4726
   275  2.0485e-03  2.3667e-07  9.8624e-08  3.8640e-10  1.3641e-03  6.0485e-05  1.0489e-01  6.3081e-04  6.1849e-01  4.5006e-04  1.1104e-02  0:59:43 4725
  iter  continuity  x-velocity  y-velocity      energy           k       omega        Cm-1    cl-1-res        Cl-1    cd-1-res        Cd-1     time/iter
   276  2.0260e-03  2.3589e-07  9.8197e-08  3.8470e-10  1.3553e-03  5.9968e-05  1.0496e-01  6.2748e-04  6.1888e-01  4.4004e-04  1.1109e-02  0:59:42 4724
   277  2.0041e-03  2.3512e-07  9.7770e-08  3.8289e-10  1.3466e-03  5.9480e-05  1.0503e-01  6.2414e-04  6.1926e-01  4.3011e-04  1.1113e-02  0:59:43 4723
   278  1.9844e-03  2.3435e-07  9.7337e-08  3.8100e-10  1.3380e-03  5.9000e-05  1.0510e-01  6.2076e-04  6.1965e-01  4.2200e-04  1.1118e-02  0:59:42 4722
   279  1.9719e-03  2.3359e-07  9.6895e-08  3.7885e-10  1.3295e-03  5.8519e-05  1.0516e-01  6.1748e-04  6.2003e-01  4.1416e-04  1.1123e-02  0:59:50 4721
   280  1.9621e-03  2.3281e-07  9.6436e-08  3.7672e-10  1.3211e-03  5.8044e-05  1.0523e-01  6.1421e-04  6.2041e-01  4.0672e-04  1.1127e-02  0:59:42 4720
   281  1.9508e-03  2.3200e-07  9.5975e-08  3.7458e-10  1.3129e-03  5.7575e-05  1.0530e-01  6.1091e-04  6.2079e-01  3.9936e-04  1.1132e-02  0:59:40 4719
   282  1.9356e-03  2.3118e-07  9.5512e-08  3.7240e-10  1.3047e-03  5.7111e-05  1.0537e-01  6.0762e-04  6.2117e-01  3.9210e-04  1.1136e-02  0:59:44 4718
   283  1.9220e-03  2.3033e-07  9.5047e-08  3.7030e-10  1.2965e-03  5.6649e-05  1.0543e-01  6.0438e-04  6.2154e-01  3.8648e-04  1.1140e-02  0:59:40 4717
   284  1.9109e-03  2.2948e-07  9.4573e-08  3.6841e-10  1.2885e-03  5.6192e-05  1.0550e-01  6.0116e-04  6.2192e-01  3.8097e-04  1.1145e-02  0:59:37 4716
   285  1.8972e-03  2.2861e-07  9.4095e-08  3.6639e-10  1.2806e-03  5.5733e-05  1.0557e-01  5.9796e-04  6.2229e-01  3.7561e-04  1.1149e-02  0:59:37 4715
   286  1.8825e-03  2.2773e-07  9.3619e-08  3.6407e-10  1.2727e-03  5.5273e-05  1.0563e-01  5.9477e-04  6.2266e-01  3.7052e-04  1.1153e-02  0:59:37 4714
  iter  continuity  x-velocity  y-velocity      energy           k       omega        Cm-1    cl-1-res        Cl-1    cd-1-res        Cd-1     time/iter
   287  1.8647e-03  2.2683e-07  9.3145e-08  3.6198e-10  1.2650e-03  5.4813e-05  1.0570e-01  5.9162e-04  6.2303e-01  3.6625e-04  1.1157e-02  0:59:24 4713
   288  1.8509e-03  2.2590e-07  9.2672e-08  3.5995e-10  1.2572e-03  5.4361e-05  1.0576e-01  5.8847e-04  6.2339e-01  3.6142e-04  1.1161e-02  0:59:27 4712
   289  1.8387e-03  2.2496e-07  9.2195e-08  3.5798e-10  1.2495e-03  5.3921e-05  1.0583e-01  5.8535e-04  6.2376e-01  3.5688e-04  1.1165e-02  0:59:17 4711
   290  1.8251e-03  2.2401e-07  9.1717e-08  3.5602e-10  1.2419e-03  5.3485e-05  1.0589e-01  5.8223e-04  6.2412e-01  3.5251e-04  1.1169e-02  0:59:24 4710
   291  1.8115e-03  2.2304e-07  9.1239e-08  3.5403e-10  1.2345e-03  5.3057e-05  1.0596e-01  5.7912e-04  6.2448e-01  3.4818e-04  1.1173e-02  0:59:13 4709
   292  1.7964e-03  2.2207e-07  9.0766e-08  3.5192e-10  1.2271e-03  5.2636e-05  1.0602e-01  5.7603e-04  6.2484e-01  3.4347e-04  1.1177e-02  0:59:19 4708
   293  1.7820e-03  2.2109e-07  9.0296e-08  3.4985e-10  1.2197e-03  5.2218e-05  1.0609e-01  5.7294e-04  6.2520e-01  3.3945e-04  1.1181e-02  0:59:15 4707
   294  1.7703e-03  2.2012e-07  8.9833e-08  3.4795e-10  1.2124e-03  5.1804e-05  1.0615e-01  5.6990e-04  6.2556e-01  3.3553e-04  1.1184e-02  0:59:20 4706
   295  1.7590e-03  2.1913e-07  8.9368e-08  3.4604e-10  1.2051e-03  5.1387e-05  1.0622e-01  5.6686e-04  6.2591e-01  3.3211e-04  1.1188e-02  0:59:08 4705
   296  1.7476e-03  2.1815e-07  8.8905e-08  3.4420e-10  1.1979e-03  5.0967e-05  1.0628e-01  5.6381e-04  6.2627e-01  3.2812e-04  1.1192e-02  0:58:56 4704
   297  1.7320e-03  2.1716e-07  8.8444e-08  3.4228e-10  1.1908e-03  5.0573e-05  1.0634e-01  5.6080e-04  6.2662e-01  3.2485e-04  1.1195e-02  0:58:52 4703
  iter  continuity  x-velocity  y-velocity      energy           k       omega        Cm-1    cl-1-res        Cl-1    cd-1-res        Cd-1     time/iter
   298  1.7165e-03  2.1617e-07  8.7989e-08  3.4038e-10  1.1837e-03  5.0177e-05  1.0640e-01  5.5778e-04  6.2697e-01  3.2063e-04  1.1199e-02  0:58:45 4702
   299  1.6997e-03  2.1518e-07  8.7541e-08  3.3846e-10  1.1767e-03  4.9771e-05  1.0647e-01  5.5478e-04  6.2732e-01  3.1759e-04  1.1202e-02  0:58:40 4701
   300  1.6878e-03  2.1420e-07  8.7092e-08  3.3660e-10  1.1696e-03  4.9373e-05  1.0653e-01  5.5181e-04  6.2766e-01  3.1427e-04  1.1206e-02  0:58:43 4700
   301  1.6749e-03  2.1323e-07  8.6642e-08  3.3484e-10  1.1626e-03  4.8981e-05  1.0659e-01  5.4888e-04  6.2801e-01  3.1104e-04  1.1209e-02  0:58:43 4699
   302  1.6630e-03  2.1225e-07  8.6199e-08  3.3296e-10  1.1557e-03  4.8597e-05  1.0665e-01  5.4593e-04  6.2835e-01  3.0762e-04  1.1213e-02  0:58:37 4698
   303  1.6472e-03  2.1127e-07  8.5762e-08  3.3115e-10  1.1488e-03  4.8216e-05  1.0671e-01  5.4298e-04  6.2869e-01  3.0420e-04  1.1216e-02  0:58:41 4697
   304  1.6310e-03  2.1030e-07  8.5333e-08  3.2928e-10  1.1419e-03  4.7841e-05  1.0677e-01  5.4004e-04  6.2903e-01  3.0023e-04  1.1220e-02  0:58:34 4696
   305  1.6150e-03  2.0933e-07  8.4909e-08  3.2750e-10  1.1352e-03  4.7465e-05  1.0684e-01  5.3713e-04  6.2937e-01  2.9694e-04  1.1223e-02  0:58:37 4695
   306  1.6041e-03  2.0836e-07  8.4485e-08  3.2565e-10  1.1284e-03  4.7089e-05  1.0690e-01  5.3419e-04  6.2971e-01  2.9362e-04  1.1226e-02  0:58:31 4694
   307  1.5965e-03  2.0740e-07  8.4056e-08  3.2381e-10  1.1217e-03  4.6728e-05  1.0696e-01  5.3127e-04  6.3004e-01  2.9038e-04  1.1230e-02  0:58:32 4693
   308  1.5910e-03  2.0644e-07  8.3638e-08  3.2222e-10  1.1151e-03  4.6380e-05  1.0702e-01  5.2837e-04  6.3037e-01  2.8699e-04  1.1233e-02  0:58:40 4692
  iter  continuity  x-velocity  y-velocity      energy           k       omega        Cm-1    cl-1-res        Cl-1    cd-1-res        Cd-1     time/iter
   309  1.5867e-03  2.0549e-07  8.3232e-08  3.2065e-10  1.1084e-03  4.6036e-05  1.0708e-01  5.2547e-04  6.3071e-01  2.8368e-04  1.1236e-02  0:58:33 4691
   310  1.5801e-03  2.0455e-07  8.2828e-08  3.1904e-10  1.1018e-03  4.5685e-05  1.0714e-01  5.2258e-04  6.3104e-01  2.8056e-04  1.1239e-02  0:58:39 4690
   311  1.5726e-03  2.0360e-07  8.2427e-08  3.1733e-10  1.0953e-03  4.5320e-05  1.0719e-01  5.1971e-04  6.3136e-01  2.7746e-04  1.1242e-02  0:58:33 4689
   312  1.5632e-03  2.0266e-07  8.2030e-08  3.1584e-10  1.0888e-03  4.4963e-05  1.0725e-01  5.1687e-04  6.3169e-01  2.7449e-04  1.1245e-02  0:58:41 4688
   313  1.5538e-03  2.0172e-07  8.1633e-08  3.1423e-10  1.0825e-03  4.4616e-05  1.0731e-01  5.1404e-04  6.3201e-01  2.7153e-04  1.1248e-02  0:58:36 4687
   314  1.5448e-03  2.0080e-07  8.1235e-08  3.1266e-10  1.0761e-03  4.4276e-05  1.0737e-01  5.1122e-04  6.3234e-01  2.6858e-04  1.1251e-02  0:58:44 4686
   315  1.5368e-03  1.9988e-07  8.0843e-08  3.1119e-10  1.0698e-03  4.3939e-05  1.0743e-01  5.0840e-04  6.3266e-01  2.6525e-04  1.1254e-02  0:58:39 4685
   316  1.5297e-03  1.9896e-07  8.0454e-08  3.0968e-10  1.0636e-03  4.3599e-05  1.0749e-01  5.0564e-04  6.3298e-01  2.6262e-04  1.1257e-02  0:58:49 4684
   317  1.5211e-03  1.9804e-07  8.0067e-08  3.0816e-10  1.0574e-03  4.3270e-05  1.0754e-01  5.0288e-04  6.3330e-01  2.5931e-04  1.1260e-02  0:58:40 4683
   318  1.5140e-03  1.9712e-07  7.9681e-08  3.0660e-10  1.0512e-03  4.2952e-05  1.0760e-01  5.0011e-04  6.3361e-01  2.5775e-04  1.1263e-02  0:58:45 4682
   319  1.5012e-03  1.9622e-07  7.9297e-08  3.0503e-10  1.0450e-03  4.2636e-05  1.0766e-01  4.9736e-04  6.3393e-01  2.5506e-04  1.1266e-02  0:58:35 4681
  iter  continuity  x-velocity  y-velocity      energy           k       omega        Cm-1    cl-1-res        Cl-1    cd-1-res        Cd-1     time/iter
   320  1.4890e-03  1.9531e-07  7.8913e-08  3.0338e-10  1.0389e-03  4.2322e-05  1.0771e-01  4.9464e-04  6.3424e-01  2.5200e-04  1.1269e-02  0:58:41 4680
   321  1.4782e-03  1.9441e-07  7.8527e-08  3.0211e-10  1.0328e-03  4.2010e-05  1.0777e-01  4.9188e-04  6.3456e-01  2.4910e-04  1.1272e-02  0:58:36 4679
   322  1.4712e-03  1.9351e-07  7.8142e-08  3.0066e-10  1.0267e-03  4.1694e-05  1.0783e-01  4.8915e-04  6.3487e-01  2.4640e-04  1.1274e-02  0:58:39 4678
   323  1.4644e-03  1.9261e-07  7.7763e-08  2.9924e-10  1.0207e-03  4.1363e-05  1.0788e-01  4.8644e-04  6.3518e-01  2.4380e-04  1.1277e-02  0:58:33 4677
   324  1.4568e-03  1.9172e-07  7.7390e-08  2.9781e-10  1.0147e-03  4.1052e-05  1.0794e-01  4.8373e-04  6.3548e-01  2.4082e-04  1.1280e-02  0:58:38 4676
   325  1.4490e-03  1.9085e-07  7.7018e-08  2.9656e-10  1.0087e-03  4.0749e-05  1.0799e-01  4.8105e-04  6.3579e-01  2.3839e-04  1.1283e-02  0:58:42 4675
   326  1.4378e-03  1.8998e-07  7.6648e-08  2.9500e-10  1.0028e-03  4.0445e-05  1.0805e-01  4.7841e-04  6.3609e-01  2.3614e-04  1.1285e-02  0:58:46 4674
   327  1.4285e-03  1.8911e-07  7.6274e-08  2.9341e-10  9.9697e-04  4.0151e-05  1.0810e-01  4.7577e-04  6.3640e-01  2.3459e-04  1.1288e-02  0:58:42 4673
   328  1.4241e-03  1.8824e-07  7.5895e-08  2.9181e-10  9.9119e-04  3.9862e-05  1.0816e-01  4.7320e-04  6.3670e-01  2.3252e-04  1.1291e-02  0:58:37 4672
   329  1.4184e-03  1.8738e-07  7.5520e-08  2.9025e-10  9.8544e-04  3.9578e-05  1.0821e-01  4.7061e-04  6.3700e-01  2.3036e-04  1.1293e-02  0:58:30 4671
   330  1.4102e-03  1.8651e-07  7.5150e-08  2.8866e-10  9.7974e-04  3.9298e-05  1.0827e-01  4.6806e-04  6.3730e-01  2.2818e-04  1.1296e-02  0:58:27 4670
  iter  continuity  x-velocity  y-velocity      energy           k       omega        Cm-1    cl-1-res        Cl-1    cd-1-res        Cd-1     time/iter
   331  1.4024e-03  1.8564e-07  7.4782e-08  2.8714e-10  9.7407e-04  3.9023e-05  1.0832e-01  4.6554e-04  6.3759e-01  2.2627e-04  1.1298e-02  0:58:21 4669
   332  1.3954e-03  1.8478e-07  7.4416e-08  2.8561e-10  9.6843e-04  3.8752e-05  1.0837e-01  4.6306e-04  6.3789e-01  2.2449e-04  1.1301e-02  0:58:22 4668
   333  1.3891e-03  1.8393e-07  7.4052e-08  2.8409e-10  9.6281e-04  3.8477e-05  1.0843e-01  4.6062e-04  6.3818e-01  2.2292e-04  1.1303e-02  0:58:29 4667
   334  1.3841e-03  1.8308e-07  7.3688e-08  2.8259e-10  9.5722e-04  3.8203e-05  1.0848e-01  4.5823e-04  6.3847e-01  2.2082e-04  1.1306e-02  0:58:26 4666
   335  1.3788e-03  1.8223e-07  7.3330e-08  2.8110e-10  9.5167e-04  3.7922e-05  1.0853e-01  4.5581e-04  6.3877e-01  2.2017e-04  1.1308e-02  0:58:24 4665
   336  1.3730e-03  1.8139e-07  7.2972e-08  2.7970e-10  9.4619e-04  3.7643e-05  1.0859e-01  4.5347e-04  6.3906e-01  2.1849e-04  1.1311e-02  0:58:32 4664
   337  1.3670e-03  1.8056e-07  7.2614e-08  2.7837e-10  9.4073e-04  3.7375e-05  1.0864e-01  4.5118e-04  6.3934e-01  2.1722e-04  1.1313e-02  0:58:33 4663
   338  1.3555e-03  1.7973e-07  7.2262e-08  2.7696e-10  9.3533e-04  3.7110e-05  1.0869e-01  4.4888e-04  6.3963e-01  2.1635e-04  1.1316e-02  0:58:27 4662
   339  1.3422e-03  1.7890e-07  7.1914e-08  2.7549e-10  9.2994e-04  3.6845e-05  1.0874e-01  4.4664e-04  6.3992e-01  2.1562e-04  1.1318e-02  0:58:25 4661
   340  1.3313e-03  1.7808e-07  7.1574e-08  2.7405e-10  9.2459e-04  3.6588e-05  1.0880e-01  4.4441e-04  6.4020e-01  2.1520e-04  1.1321e-02  0:58:23 4660
   341  1.3225e-03  1.7726e-07  7.1239e-08  2.7279e-10  9.1928e-04  3.6332e-05  1.0885e-01  4.4228e-04  6.4048e-01  2.1483e-04  1.1323e-02  0:58:22 4659
  iter  continuity  x-velocity  y-velocity      energy           k       omega        Cm-1    cl-1-res        Cl-1    cd-1-res        Cd-1     time/iter
   342  1.3142e-03  1.7645e-07  7.0909e-08  2.7162e-10  9.1400e-04  3.6075e-05  1.0890e-01  4.4016e-04  6.4077e-01  2.1441e-04  1.1325e-02  0:58:19 4658
   343  1.3056e-03  1.7565e-07  7.0583e-08  2.7039e-10  9.0878e-04  3.5827e-05  1.0895e-01  4.3809e-04  6.4105e-01  2.1390e-04  1.1328e-02  0:58:17 4657
   344  1.2960e-03  1.7485e-07  7.0255e-08  2.6911e-10  9.0362e-04  3.5584e-05  1.0900e-01  4.3600e-04  6.4133e-01  2.1275e-04  1.1330e-02  0:58:14 4656
   345  1.2864e-03  1.7405e-07  6.9933e-08  2.6786e-10  8.9847e-04  3.5340e-05  1.0905e-01  4.3398e-04  6.4161e-01  2.1242e-04  1.1333e-02  0:58:16 4655
   346  1.2749e-03  1.7326e-07  6.9615e-08  2.6655e-10  8.9337e-04  3.5088e-05  1.0911e-01  4.3199e-04  6.4188e-01  2.1179e-04  1.1335e-02  0:58:11 4654
   347  1.2720e-03  1.7248e-07  6.9300e-08  2.6526e-10  8.8833e-04  3.4839e-05  1.0916e-01  4.2998e-04  6.4216e-01  2.1075e-04  1.1338e-02  0:58:16 4653
   348  1.2685e-03  1.7171e-07  6.8997e-08  2.6397e-10  8.8330e-04  3.4593e-05  1.0921e-01  4.2802e-04  6.4243e-01  2.1030e-04  1.1340e-02  0:58:08 4652
   349  1.2639e-03  1.7095e-07  6.8701e-08  2.6287e-10  8.7830e-04  3.4351e-05  1.0926e-01  4.2609e-04  6.4271e-01  2.0990e-04  1.1342e-02  0:58:09 4651
   350  1.2592e-03  1.7020e-07  6.8412e-08  2.6173e-10  8.7333e-04  3.4116e-05  1.0931e-01  4.2417e-04  6.4298e-01  2.0915e-04  1.1345e-02  0:58:08 4650
   351  1.2542e-03  1.6946e-07  6.8129e-08  2.6050e-10  8.6841e-04  3.3883e-05  1.0936e-01  4.2228e-04  6.4325e-01  2.0860e-04  1.1347e-02  0:58:11 4649
   352  1.2486e-03  1.6873e-07  6.7850e-08  2.5929e-10  8.6354e-04  3.3652e-05  1.0941e-01  4.2041e-04  6.4352e-01  2.0751e-04  1.1349e-02  0:58:10 4648
  iter  continuity  x-velocity  y-velocity      energy           k       omega        Cm-1    cl-1-res        Cl-1    cd-1-res        Cd-1     time/iter
   353  1.2448e-03  1.6801e-07  6.7574e-08  2.5804e-10  8.5871e-04  3.3425e-05  1.0946e-01  4.1855e-04  6.4379e-01  2.0665e-04  1.1352e-02  0:58:09 4647
   354  1.2415e-03  1.6730e-07  6.7301e-08  2.5691e-10  8.5392e-04  3.3202e-05  1.0951e-01  4.1675e-04  6.4406e-01  2.0566e-04  1.1354e-02  0:58:09 4646
   355  1.2358e-03  1.6659e-07  6.7029e-08  2.5582e-10  8.4918e-04  3.2979e-05  1.0956e-01  4.1495e-04  6.4433e-01  2.0512e-04  1.1356e-02  0:58:13 4645
   356  1.2294e-03  1.6589e-07  6.6761e-08  2.5470e-10  8.4452e-04  3.2759e-05  1.0961e-01  4.1319e-04  6.4459e-01  2.0467e-04  1.1359e-02  0:58:12 4644
   357  1.2289e-03  1.6520e-07  6.6493e-08  2.5369e-10  8.3991e-04  3.2543e-05  1.0966e-01  4.1145e-04  6.4486e-01  2.0420e-04  1.1361e-02  0:58:18 4643
   358  1.2267e-03  1.6452e-07  6.6234e-08  2.5261e-10  8.3530e-04  3.2314e-05  1.0971e-01  4.0972e-04  6.4512e-01  2.0363e-04  1.1363e-02  0:58:14 4642
   359  1.2236e-03  1.6384e-07  6.5984e-08  2.5154e-10  8.3073e-04  3.2089e-05  1.0976e-01  4.0802e-04  6.4539e-01  2.0309e-04  1.1366e-02  0:58:09 4641
   360  1.2199e-03  1.6318e-07  6.5741e-08  2.5047e-10  8.2621e-04  3.1872e-05  1.0981e-01  4.0631e-04  6.4565e-01  2.0240e-04  1.1368e-02  1:02:10 4640
   361  1.2166e-03  1.6252e-07  6.5500e-08  2.4947e-10  8.2175e-04  3.1659e-05  1.0986e-01  4.0468e-04  6.4591e-01  2.0233e-04  1.1370e-02  1:01:16 4639
   362  1.2134e-03  1.6187e-07  6.5261e-08  2.4845e-10  8.1732e-04  3.1447e-05  1.0990e-01  4.0307e-04  6.4617e-01  2.0146e-04  1.1373e-02  1:00:36 4638
   363  1.2091e-03  1.6123e-07  6.5025e-08  2.4742e-10  8.1292e-04  3.1240e-05  1.0995e-01  4.0145e-04  6.4643e-01  2.0067e-04  1.1375e-02  0:59:57 4637
  iter  continuity  x-velocity  y-velocity      energy           k       omega        Cm-1    cl-1-res        Cl-1    cd-1-res        Cd-1     time/iter
   364  1.2037e-03  1.6059e-07  6.4794e-08  2.4636e-10  8.0857e-04  3.1036e-05  1.1000e-01  3.9983e-04  6.4669e-01  1.9926e-04  1.1377e-02  0:59:35 4636
   365  1.1989e-03  1.5997e-07  6.4567e-08  2.4537e-10  8.0426e-04  3.0832e-05  1.1005e-01  3.9814e-04  6.4695e-01  1.9770e-04  1.1379e-02  0:59:12 4635
   366  1.1944e-03  1.5935e-07  6.4341e-08  2.4440e-10  7.9999e-04  3.0630e-05  1.1010e-01  3.9643e-04  6.4720e-01  1.9575e-04  1.1382e-02  0:58:23 4634
   367  1.1919e-03  1.5874e-07  6.4114e-08  2.4338e-10  7.9576e-04  3.0431e-05  1.1015e-01  3.9468e-04  6.4746e-01  1.9345e-04  1.1384e-02  0:57:20 4633
   368  1.1874e-03  1.5813e-07  6.3884e-08  2.4248e-10  7.9155e-04  3.0234e-05  1.1019e-01  3.9288e-04  6.4771e-01  1.9073e-04  1.1386e-02  0:56:25 4632
   369  1.1796e-03  1.5753e-07  6.3657e-08  2.4164e-10  7.8735e-04  3.0031e-05  1.1024e-01  3.9105e-04  6.4797e-01  1.8785e-04  1.1388e-02  0:55:45 4631
   370  1.1782e-03  1.5693e-07  6.3431e-08  2.4070e-10  7.8320e-04  2.9823e-05  1.1029e-01  3.8919e-04  6.4822e-01  1.8449e-04  1.1390e-02  0:55:13 4630
   371  1.1733e-03  1.5634e-07  6.3203e-08  2.3980e-10  7.7907e-04  2.9622e-05  1.1034e-01  3.8729e-04  6.4847e-01  1.8083e-04  1.1392e-02  0:54:45 4629
   372  1.1669e-03  1.5575e-07  6.2975e-08  2.3876e-10  7.7497e-04  2.9426e-05  1.1038e-01  3.8537e-04  6.4872e-01  1.7719e-04  1.1394e-02  0:54:30 4628
   373  1.1610e-03  1.5516e-07  6.2746e-08  2.3774e-10  7.7090e-04  2.9232e-05  1.1043e-01  3.8341e-04  6.4897e-01  1.7337e-04  1.1396e-02  0:54:14 4627
   374  1.1567e-03  1.5457e-07  6.2513e-08  2.3670e-10  7.6687e-04  2.9040e-05  1.1048e-01  3.8141e-04  6.4922e-01  1.6935e-04  1.1398e-02  0:54:01 4626
  iter  continuity  x-velocity  y-velocity      energy           k       omega        Cm-1    cl-1-res        Cl-1    cd-1-res        Cd-1     time/iter
   375  1.1528e-03  1.5398e-07  6.2276e-08  2.3567e-10  7.6287e-04  2.8853e-05  1.1052e-01  3.7937e-04  6.4946e-01  1.6507e-04  1.1400e-02  0:53:53 4625
   376  1.1491e-03  1.5340e-07  6.2033e-08  2.3462e-10  7.5893e-04  2.8668e-05  1.1057e-01  3.7730e-04  6.4971e-01  1.6053e-04  1.1402e-02  0:53:53 4624
   377  1.1460e-03  1.5282e-07  6.1781e-08  2.3354e-10  7.5499e-04  2.8483e-05  1.1061e-01  3.7521e-04  6.4995e-01  1.5575e-04  1.1404e-02  0:53:45 4623
   378  1.1427e-03  1.5223e-07  6.1523e-08  2.3244e-10  7.5109e-04  2.8299e-05  1.1066e-01  3.7307e-04  6.5019e-01  1.5182e-04  1.1405e-02  0:53:38 4622
   379  1.1393e-03  1.5163e-07  6.1254e-08  2.3134e-10  7.4722e-04  2.8117e-05  1.1070e-01  3.7094e-04  6.5044e-01  1.4751e-04  1.1407e-02  0:53:32 4621
   380  1.1352e-03  1.5105e-07  6.0980e-08  2.3017e-10  7.4338e-04  2.7934e-05  1.1075e-01  3.6875e-04  6.5068e-01  1.4376e-04  1.1409e-02  0:53:30 4620
   381  1.1320e-03  1.5046e-07  6.0701e-08  2.2912e-10  7.3956e-04  2.7744e-05  1.1079e-01  3.6650e-04  6.5091e-01  1.3882e-04  1.1410e-02  0:53:22 4619
   382  1.1284e-03  1.4987e-07  6.0417e-08  2.2808e-10  7.3575e-04  2.7555e-05  1.1084e-01  3.6421e-04  6.5115e-01  1.3395e-04  1.1412e-02  0:53:23 4618
   383  1.1241e-03  1.4928e-07  6.0127e-08  2.2696e-10  7.3194e-04  2.7372e-05  1.1088e-01  3.6186e-04  6.5139e-01  1.2983e-04  1.1413e-02  0:53:25 4617
   384  1.1206e-03  1.4868e-07  5.9829e-08  2.2581e-10  7.2816e-04  2.7193e-05  1.1092e-01  3.5952e-04  6.5162e-01  1.2436e-04  1.1415e-02  0:53:26 4616
   385  1.1151e-03  1.4807e-07  5.9521e-08  2.2463e-10  7.2442e-04  2.7015e-05  1.1097e-01  3.5708e-04  6.5185e-01  1.2051e-04  1.1416e-02  0:53:19 4615
  iter  continuity  x-velocity  y-velocity      energy           k       omega        Cm-1    cl-1-res        Cl-1    cd-1-res        Cd-1     time/iter
   386  1.1098e-03  1.4745e-07  5.9203e-08  2.2339e-10  7.2072e-04  2.6842e-05  1.1101e-01  3.5454e-04  6.5209e-01  1.1620e-04  1.1417e-02  0:53:21 4614
   387  1.1038e-03  1.4683e-07  5.8872e-08  2.2212e-10  7.1703e-04  2.6670e-05  1.1105e-01  3.5201e-04  6.5231e-01  1.1108e-04  1.1419e-02  0:53:17 4613
   388  1.0976e-03  1.4619e-07  5.8530e-08  2.2085e-10  7.1337e-04  2.6499e-05  1.1109e-01  3.4945e-04  6.5254e-01  1.0577e-04  1.1420e-02  0:53:19 4612
   389  1.0923e-03  1.4555e-07  5.8180e-08  2.1955e-10  7.0973e-04  2.6329e-05  1.1114e-01  3.4687e-04  6.5277e-01  1.0083e-04  1.1421e-02  0:53:17 4611
   390  1.0875e-03  1.4490e-07  5.7826e-08  2.1821e-10  7.0612e-04  2.6158e-05  1.1118e-01  3.4428e-04  6.5299e-01  9.5951e-05  1.1422e-02  0:53:15 4610
   391  1.0822e-03  1.4424e-07  5.7465e-08  2.1683e-10  7.0252e-04  2.5988e-05  1.1122e-01  3.4170e-04  6.5322e-01  9.1739e-05  1.1423e-02  0:53:13 4609
   392  1.0781e-03  1.4357e-07  5.7095e-08  2.1548e-10  6.9892e-04  2.5814e-05  1.1126e-01  3.3916e-04  6.5344e-01  8.8111e-05  1.1424e-02  0:53:04 4608
   393  1.0747e-03  1.4289e-07  5.6718e-08  2.1420e-10  6.9536e-04  2.5633e-05  1.1130e-01  3.3663e-04  6.5366e-01  8.4951e-05  1.1425e-02  0:53:06 4607
   394  1.0710e-03  1.4219e-07  5.6335e-08  2.1292e-10  6.9181e-04  2.5458e-05  1.1134e-01  3.3414e-04  6.5388e-01  8.1528e-05  1.1426e-02  0:53:06 4606
   395  1.0659e-03  1.4149e-07  5.5949e-08  2.1155e-10  6.8828e-04  2.5286e-05  1.1138e-01  3.3168e-04  6.5409e-01  7.9856e-05  1.1427e-02  0:53:08 4605
   396  1.0602e-03  1.4077e-07  5.5557e-08  2.1019e-10  6.8478e-04  2.5115e-05  1.1141e-01  3.2925e-04  6.5431e-01  7.8387e-05  1.1428e-02  0:53:05 4604
  iter  continuity  x-velocity  y-velocity      energy           k       omega        Cm-1    cl-1-res        Cl-1    cd-1-res        Cd-1     time/iter
   397  1.0545e-03  1.4005e-07  5.5161e-08  2.0883e-10  6.8129e-04  2.4944e-05  1.1145e-01  3.2682e-04  6.5452e-01  7.6754e-05  1.1429e-02  0:53:09 4603
   398  1.0492e-03  1.3932e-07  5.4761e-08  2.0740e-10  6.7783e-04  2.4775e-05  1.1149e-01  3.2444e-04  6.5474e-01  7.5555e-05  1.1430e-02  0:53:04 4602
[...]
   855  4.1542e-05  5.8714e-09  1.1023e-09  7.3014e-12  1.3353e-04  2.2314e-06  1.1586e-01  5.0064e-06  6.7922e-01  6.7555e-06  1.1577e-02  0:22:29 4145
   856  4.1263e-05  5.8431e-09  1.0942e-09  7.2607e-12  1.3325e-04  2.2239e-06  1.1586e-01  4.9639e-06  6.7923e-01  6.7061e-06  1.1577e-02  0:22:19 4144
   857  4.0983e-05  5.8151e-09  1.0861e-09  7.2204e-12  1.3297e-04  2.2165e-06  1.1586e-01  4.9218e-06  6.7923e-01  6.6569e-06  1.1577e-02  0:22:11 4143
   858  4.0703e-05  5.7873e-09  1.0780e-09  7.1806e-12  1.3270e-04  2.2091e-06  1.1586e-01  4.8799e-06  6.7923e-01  6.6072e-06  1.1577e-02  0:22:03 4142
  iter  continuity  x-velocity  y-velocity      energy           k       omega        Cm-1    cl-1-res        Cl-1    cd-1-res        Cd-1     time/iter
   859  4.0423e-05  5.7598e-09  1.0701e-09  7.1411e-12  1.3242e-04  2.2017e-06  1.1586e-01  4.8384e-06  6.7924e-01  6.5592e-06  1.1577e-02  0:21:57 4141
   860  4.0137e-05  5.7325e-09  1.0621e-09  7.1019e-12  1.3214e-04  2.1944e-06  1.1586e-01  4.7972e-06  6.7924e-01  6.5128e-06  1.1577e-02  0:21:53 4140
   861  3.9855e-05  5.7053e-09  1.0543e-09  7.0627e-12  1.3187e-04  2.1871e-06  1.1586e-01  4.7565e-06  6.7924e-01  6.4674e-06  1.1577e-02  0:21:48 4139
   862  3.9579e-05  5.6784e-09  1.0464e-09  7.0239e-12  1.3160e-04  2.1799e-06  1.1586e-01  4.7161e-06  6.7925e-01  6.4230e-06  1.1577e-02  0:21:44 4138
   863  3.9305e-05  5.6517e-09  1.0387e-09  6.9856e-12  1.3133e-04  2.1727e-06  1.1586e-01  4.6761e-06  6.7925e-01  6.3795e-06  1.1577e-02  0:21:42 4137
   864  3.9035e-05  5.6252e-09  1.0310e-09  6.9477e-12  1.3106e-04  2.1655e-06  1.1587e-01  4.6365e-06  6.7925e-01  6.3364e-06  1.1577e-02  0:21:40 4136
   865  3.8763e-05  5.5989e-09  1.0233e-09  6.9106e-12  1.3079e-04  2.1584e-06  1.1587e-01  4.5972e-06  6.7926e-01  6.2945e-06  1.1577e-02  0:21:37 4135
   866  3.8491e-05  5.5728e-09  1.0157e-09  6.8734e-12  1.3052e-04  2.1513e-06  1.1587e-01  4.5583e-06  6.7926e-01  6.2535e-06  1.1578e-02  0:21:36 4134
   867  3.8222e-05  5.5469e-09  1.0081e-09  6.8360e-12  1.3026e-04  2.1443e-06  1.1587e-01  4.5198e-06  6.7926e-01  6.2133e-06  1.1578e-02  0:21:34 4133
   868  3.7957e-05  5.5213e-09  1.0006e-09  6.7988e-12  1.2999e-04  2.1373e-06  1.1587e-01  4.4816e-06  6.7927e-01  6.1736e-06  1.1578e-02  0:21:37 4132
   869  3.7693e-05  5.4958e-09  9.9320e-10  6.6366e-12  1.2973e-04  2.1303e-06  1.1587e-01  4.4435e-06  6.7927e-01  6.1335e-06  1.1578e-02  0:21:35 4131
  iter  continuity  x-velocity  y-velocity      energy           k       omega        Cm-1    cl-1-res        Cl-1    cd-1-res        Cd-1     time/iter
   870  3.7423e-05  5.4705e-09  9.8581e-10  6.6965e-12  1.2947e-04  2.1233e-06  1.1587e-01  4.4059e-06  6.7927e-01  6.0939e-06  1.1578e-02  0:21:34 4130
   871  3.7132e-05  5.4453e-09  9.7848e-10  6.6803e-12  1.2921e-04  2.1164e-06  1.1587e-01  4.3686e-06  6.7928e-01  6.0547e-06  1.1578e-02  0:21:37 4129
   872  3.6855e-05  5.4204e-09  9.7120e-10  6.5260e-12  1.2895e-04  2.1096e-06  1.1587e-01  4.3315e-06  6.7928e-01  6.0158e-06  1.1578e-02  0:21:35 4128
   873  3.6585e-05  5.3957e-09  9.6399e-10  6.5885e-12  1.2869e-04  2.1027e-06  1.1587e-01  4.2949e-06  6.7928e-01  5.9778e-06  1.1578e-02  0:21:38 4127
   874  3.6321e-05  5.3711e-09  9.5682e-10  6.4540e-12  1.2843e-04  2.0959e-06  1.1587e-01  4.2586e-06  6.7928e-01  5.9400e-06  1.1578e-02  0:21:35 4126
   875  3.6062e-05  5.3467e-09  9.4972e-10  6.5166e-12  1.2818e-04  2.0891e-06  1.1587e-01  4.2227e-06  6.7929e-01  5.9030e-06  1.1578e-02  0:21:37 4125
   876  3.5809e-05  5.3225e-09  9.4267e-10  6.3827e-12  1.2793e-04  2.0824e-06  1.1587e-01  4.1870e-06  6.7929e-01  5.8660e-06  1.1578e-02  0:21:35 4124
   877  3.5547e-05  5.2985e-09  9.3568e-10  6.4462e-12  1.2767e-04  2.0757e-06  1.1587e-01  4.1517e-06  6.7929e-01  5.8295e-06  1.1578e-02  0:21:37 4123
   878  3.5254e-05  5.2745e-09  9.2875e-10  6.3130e-12  1.2742e-04  2.0691e-06  1.1587e-01  4.1167e-06  6.7930e-01  5.7929e-06  1.1578e-02  0:21:34 4122
   879  3.4976e-05  5.2507e-09  9.2187e-10  6.3767e-12  1.2717e-04  2.0624e-06  1.1587e-01  4.0820e-06  6.7930e-01  5.7569e-06  1.1578e-02  0:21:36 4121
   880  3.4712e-05  5.2271e-09  9.1506e-10  6.2450e-12  1.2692e-04  2.0559e-06  1.1587e-01  4.0476e-06  6.7930e-01  5.7208e-06  1.1578e-02  0:21:34 4120
  iter  continuity  x-velocity  y-velocity      energy           k       omega        Cm-1    cl-1-res        Cl-1    cd-1-res        Cd-1     time/iter
   881  3.4458e-05  5.2038e-09  9.0830e-10  6.3090e-12  1.2667e-04  2.0493e-06  1.1587e-01  4.0135e-06  6.7930e-01  5.6847e-06  1.1579e-02  0:21:36 4119
   882  3.4211e-05  5.1807e-09  9.0161e-10  6.1802e-12  1.2643e-04  2.0428e-06  1.1587e-01  3.9795e-06  6.7931e-01  5.6483e-06  1.1579e-02  0:21:34 4118
   883  3.3969e-05  5.1578e-09  8.9497e-10  6.2464e-12  1.2618e-04  2.0363e-06  1.1588e-01  3.9460e-06  6.7931e-01  5.6125e-06  1.1579e-02  0:21:35 4117
   884  3.3734e-05  5.1351e-09  8.8839e-10  6.1182e-12  1.2594e-04  2.0298e-06  1.1588e-01  3.9127e-06  6.7931e-01  5.5768e-06  1.1579e-02  0:21:33 4116
   885  3.3505e-05  5.1126e-09  8.8187e-10  6.1849e-12  1.2569e-04  2.0234e-06  1.1588e-01  3.8797e-06  6.7931e-01  5.5418e-06  1.1579e-02  0:21:34 4115
   886  3.3283e-05  5.0902e-09  8.7541e-10  6.0592e-12  1.2545e-04  2.0170e-06  1.1588e-01  3.8470e-06  6.7932e-01  5.5070e-06  1.1579e-02  0:21:36 4114
   887  3.3058e-05  5.0681e-09  8.6900e-10  6.0146e-12  1.2521e-04  2.0106e-06  1.1588e-01  3.8146e-06  6.7932e-01  5.4722e-06  1.1579e-02  0:21:37 4113
   888  3.2809e-05  5.0461e-09  8.6266e-10  5.9811e-12  1.2497e-04  2.0043e-06  1.1588e-01  3.7826e-06  6.7932e-01  5.4379e-06  1.1579e-02  0:21:38 4112
   889  3.2579e-05  5.0243e-09  8.5637e-10  5.9479e-12  1.2473e-04  1.9980e-06  1.1588e-01  3.7508e-06  6.7932e-01  5.4043e-06  1.1579e-02  0:21:39 4111
   890  3.2360e-05  5.0026e-09  8.5013e-10  5.9148e-12  1.2449e-04  1.9917e-06  1.1588e-01  3.7193e-06  6.7933e-01  5.3712e-06  1.1579e-02  0:21:39 4110
   891  3.2147e-05  4.9811e-09  8.4395e-10  5.8826e-12  1.2426e-04  1.9855e-06  1.1588e-01  3.6880e-06  6.7933e-01  5.3378e-06  1.1579e-02  0:21:39 4109
  iter  continuity  x-velocity  y-velocity      energy           k       omega        Cm-1    cl-1-res        Cl-1    cd-1-res        Cd-1     time/iter
   892  3.1932e-05  4.9598e-09  8.3783e-10  5.8516e-12  1.2402e-04  1.9793e-06  1.1588e-01  3.6569e-06  6.7933e-01  5.3037e-06  1.1579e-02  0:21:39 4108
   893  3.1720e-05  4.9387e-09  8.3176e-10  5.8231e-12  1.2379e-04  1.9731e-06  1.1588e-01  3.6260e-06  6.7933e-01  5.2691e-06  1.1579e-02  0:21:39 4107
   894  3.1514e-05  4.9177e-09  8.2575e-10  5.7940e-12  1.2355e-04  1.9670e-06  1.1588e-01  3.5954e-06  6.7934e-01  5.2356e-06  1.1579e-02  0:21:39 4106
Solution for monitor cl-1 has converged
   895  3.1312e-05  4.8969e-09  8.1979e-10  5.7645e-12  1.2332e-04  1.9608e-06  1.1588e-01  3.5652e-06  6.7934e-01  5.2030e-06  1.1579e-02  0:21:39 4105
Solution for monitor cl-1 has converged
   896  3.1114e-05  4.8762e-09  8.1388e-10  5.7384e-12  1.2309e-04  1.9548e-06  1.1588e-01  3.5390e-06  6.7934e-01  5.1211e-06  1.1579e-02  0:21:18 4104
Solution for monitor cl-1 has converged
   897  3.0938e-05  4.8561e-09  8.0796e-10  5.7043e-12  1.2286e-04  1.9485e-06  1.1588e-01  3.5040e-06  6.7934e-01  5.1451e-06  1.1580e-02  0:21:24 4103
Solution for monitor cl-1 has converged
   898  3.0751e-05  4.8360e-09  8.0224e-10  5.6724e-12  1.2263e-04  1.9426e-06  1.1588e-01  3.4790e-06  6.7935e-01  5.0628e-06  1.1580e-02  0:21:05 4102
Solution for monitor cl-1 has converged
   899  3.0589e-05  4.8165e-09  7.9640e-10  5.6384e-12  1.2240e-04  1.9365e-06  1.1588e-01  3.4447e-06  6.7935e-01  5.0959e-06  1.1580e-02  0:21:12 4101
Solution for monitor cl-1 has converged
   900  3.0397e-05  4.7966e-09  7.9079e-10  5.6117e-12  1.2217e-04  1.9307e-06  1.1588e-01  3.4205e-06  6.7935e-01  5.0089e-06  1.1580e-02  0:20:55 4100
Solution for monitor cl-1 has converged
   901  3.0232e-05  4.7775e-09  7.8505e-10  5.5810e-12  1.2195e-04  1.9247e-06  1.1588e-01  3.3907e-06  6.7935e-01  4.9930e-06  1.1580e-02  0:20:41 4099
Solution for monitor cl-1 has converged
   902  3.0066e-05  4.7588e-09  7.7946e-10  5.5563e-12  1.2172e-04  1.9186e-06  1.1588e-01  3.3584e-06  6.7936e-01  5.0096e-06  1.1580e-02  0:20:53 4098
Solution for monitor cl-1 has converged
  iter  continuity  x-velocity  y-velocity      energy           k       omega        Cm-1    cl-1-res        Cl-1    cd-1-res        Cd-1     time/iter
   903  2.9860e-05  4.7393e-09  7.7397e-10  5.5284e-12  1.2150e-04  1.9130e-06  1.1588e-01  3.3350e-06  6.7936e-01  4.9359e-06  1.1580e-02  0:20:39 4097
Solution for monitor cl-1 has converged
   904  2.9703e-05  4.7207e-09  7.6839e-10  5.4997e-12  1.2128e-04  1.9070e-06  1.1588e-01  3.3063e-06  6.7936e-01  4.9140e-06  1.1580e-02  0:20:29 4096
Solution for monitor cl-1 has converged
   905  2.9561e-05  4.7024e-09  7.6294e-10  5.4735e-12  1.2106e-04  1.9012e-06  1.1589e-01  3.2787e-06  6.7936e-01  4.8824e-06  1.1580e-02  0:20:20 4095
Solution for monitor cl-1 has converged
   906  2.9423e-05  4.6842e-09  7.5752e-10  5.4496e-12  1.2084e-04  1.8953e-06  1.1589e-01  3.2479e-06  6.7936e-01  4.9135e-06  1.1580e-02  0:20:36 4094
Solution for monitor cl-1 has converged
   907  2.9226e-05  4.6652e-09  7.5225e-10  5.4243e-12  1.2062e-04  1.8898e-06  1.1589e-01  3.2256e-06  6.7937e-01  4.8337e-06  1.1580e-02  0:20:25 4093
Solution for monitor cl-1 has converged
   908  2.9062e-05  4.6470e-09  7.4686e-10  5.3964e-12  1.2040e-04  1.8840e-06  1.1589e-01  3.1984e-06  6.7937e-01  4.8139e-06  1.1580e-02  0:20:18 4092
Solution for monitor cl-1 has converged
   909  2.8849e-05  4.6285e-09  7.4160e-10  5.3731e-12  1.2018e-04  1.8782e-06  1.1589e-01  3.1688e-06  6.7937e-01  4.8311e-06  1.1580e-02  0:20:33 4091
Solution for monitor cl-1 has converged
   910  2.8604e-05  4.6093e-09  7.3644e-10  5.3451e-12  1.1997e-04  1.8727e-06  1.1589e-01  3.1471e-06  6.7937e-01  4.7568e-06  1.1580e-02  0:20:23 4090
Solution for monitor cl-1 has converged
   911  2.8425e-05  4.5910e-09  7.3114e-10  5.3152e-12  1.1975e-04  1.8670e-06  1.1589e-01  3.1207e-06  6.7938e-01  4.7372e-06  1.1580e-02  0:20:15 4089
Solution for monitor cl-1 has converged
   912  2.8281e-05  4.5730e-09  7.2599e-10  5.2913e-12  1.1954e-04  1.8612e-06  1.1589e-01  3.0920e-06  6.7938e-01  4.7542e-06  1.1580e-02  0:20:31 4088
Solution for monitor cl-1 has converged
   913  2.8094e-05  4.5543e-09  7.2094e-10  5.2648e-12  1.1932e-04  1.8558e-06  1.1589e-01  3.0710e-06  6.7938e-01  4.6816e-06  1.1580e-02  0:20:21 4087
Solution for monitor cl-1 has converged
  iter  continuity  x-velocity  y-velocity      energy           k       omega        Cm-1    cl-1-res        Cl-1    cd-1-res        Cd-1     time/iter
   914  2.7943e-05  4.5365e-09  7.1578e-10  5.2376e-12  1.1911e-04  1.8501e-06  1.1589e-01  3.0423e-06  6.7938e-01  4.7096e-06  1.1581e-02  0:20:36 4086
Solution for monitor cl-1 has converged
   915  2.7788e-05  4.5180e-09  7.1086e-10  5.2162e-12  1.1890e-04  1.8447e-06  1.1589e-01  3.0221e-06  6.7938e-01  4.6233e-06  1.1581e-02  0:20:25 4085
Solution for monitor cl-1 has converged
   916  2.7682e-05  4.5004e-09  7.0579e-10  5.1892e-12  1.1869e-04  1.8391e-06  1.1589e-01  2.9936e-06  6.7939e-01  4.6592e-06  1.1581e-02  0:20:39 4084
Solution for monitor cl-1 has converged
   917  2.7552e-05  4.4824e-09  7.0095e-10  5.1665e-12  1.1848e-04  1.8337e-06  1.1589e-01  2.9706e-06  6.7939e-01  4.6214e-06  1.1581e-02  0:20:50 4083
Solution for monitor cl-1 has converged
   918  2.7421e-05  4.4645e-09  6.9607e-10  5.1445e-12  1.1827e-04  1.8283e-06  1.1589e-01  2.9501e-06  6.7939e-01  4.5531e-06  1.1581e-02  0:20:36 4082
Solution for monitor cl-1 has converged
   919  2.7307e-05  4.4474e-09  6.9118e-10  5.1177e-12  1.1806e-04  1.8227e-06  1.1589e-01  2.9225e-06  6.7939e-01  4.5759e-06  1.1581e-02  0:20:47 4081
Solution for monitor cl-1 has converged
   920  2.7175e-05  4.4299e-09  6.8648e-10  5.0932e-12  1.1786e-04  1.8174e-06  1.1589e-01  2.8998e-06  6.7939e-01  4.5431e-06  1.1581e-02  0:20:56 4080
Solution for monitor cl-1 has converged
   921  2.7042e-05  4.4124e-09  6.8173e-10  5.0671e-12  1.1765e-04  1.8120e-06  1.1589e-01  2.8766e-06  6.7940e-01  4.5209e-06  1.1581e-02  0:21:04 4079
Solution for monitor cl-1 has converged
   922  2.6911e-05  4.3951e-09  6.7704e-10  5.0438e-12  1.1745e-04  1.8067e-06  1.1589e-01  2.8539e-06  6.7940e-01  4.4883e-06  1.1581e-02  0:21:09 4078
Solution for monitor cl-1 has converged
   923  2.6781e-05  4.3779e-09  6.7240e-10  5.0206e-12  1.1724e-04  1.8014e-06  1.1589e-01  2.8313e-06  6.7940e-01  4.4612e-06  1.1581e-02  0:21:13 4077
Solution for monitor cl-1 has converged
   924  2.6652e-05  4.3609e-09  6.6780e-10  4.9964e-12  1.1704e-04  1.7961e-06  1.1589e-01  2.8087e-06  6.7940e-01  4.4325e-06  1.1581e-02  0:21:17 4076
Solution for monitor cl-1 has converged
  iter  continuity  x-velocity  y-velocity      energy           k       omega        Cm-1    cl-1-res        Cl-1    cd-1-res        Cd-1     time/iter
   925  2.6521e-05  4.3440e-09  6.6324e-10  4.9714e-12  1.1684e-04  1.7908e-06  1.1589e-01  2.7863e-06  6.7940e-01  4.4064e-06  1.1581e-02  0:22:41 4075
Solution for monitor cl-1 has converged
   926  2.6389e-05  4.3273e-09  6.5872e-10  4.9461e-12  1.1664e-04  1.7855e-06  1.1589e-01  2.7641e-06  6.7941e-01  4.3807e-06  1.1581e-02  0:22:28 4074
Solution for monitor cl-1 has converged
   927  2.6256e-05  4.3107e-09  6.5424e-10  4.9215e-12  1.1644e-04  1.7803e-06  1.1589e-01  2.7421e-06  6.7941e-01  4.3551e-06  1.1581e-02  0:22:17 4073
Solution for monitor cl-1 has converged
   928  2.6126e-05  4.2943e-09  6.4981e-10  4.8974e-12  1.1624e-04  1.7751e-06  1.1589e-01  2.7203e-06  6.7941e-01  4.3297e-06  1.1581e-02  0:22:07 4072
Solution for monitor cl-1 has converged
   929  2.5998e-05  4.2781e-09  6.4542e-10  4.8739e-12  1.1604e-04  1.7699e-06  1.1589e-01  2.6986e-06  6.7941e-01  4.3044e-06  1.1581e-02  0:22:00 4071
Solution for monitor cl-1 has converged
   930  2.5873e-05  4.2620e-09  6.4107e-10  4.8507e-12  1.1585e-04  1.7647e-06  1.1589e-01  2.6771e-06  6.7941e-01  4.2792e-06  1.1581e-02  0:21:54 4070
Solution for monitor cl-1 has converged
   931  2.5748e-05  4.2460e-09  6.3676e-10  4.8276e-12  1.1565e-04  1.7596e-06  1.1589e-01  2.6558e-06  6.7941e-01  4.2541e-06  1.1581e-02  0:21:49 4069
Solution for monitor cl-1 has converged
   932  2.5626e-05  4.2302e-09  6.3249e-10  4.8049e-12  1.1546e-04  1.7545e-06  1.1590e-01  2.6346e-06  6.7942e-01  4.2292e-06  1.1581e-02  0:21:45 4068
Solution for monitor cl-1 has converged
   933  2.5502e-05  4.2146e-09  6.2825e-10  4.7821e-12  1.1526e-04  1.7494e-06  1.1590e-01  2.6137e-06  6.7942e-01  4.2044e-06  1.1581e-02  0:21:42 4067
Solution for monitor cl-1 has converged
   934  2.5372e-05  4.1992e-09  6.2406e-10  4.7595e-12  1.1507e-04  1.7443e-06  1.1590e-01  2.5929e-06  6.7942e-01  4.1796e-06  1.1582e-02  0:21:40 4066
Solution for monitor cl-1 has converged
   935  2.5244e-05  4.1838e-09  6.1990e-10  4.7371e-12  1.1488e-04  1.7393e-06  1.1590e-01  2.5723e-06  6.7942e-01  4.1548e-06  1.1582e-02  0:21:36 4065
Solution for monitor cl-1 has converged
  iter  continuity  x-velocity  y-velocity      energy           k       omega        Cm-1    cl-1-res        Cl-1    cd-1-res        Cd-1     time/iter
   936  2.5119e-05  4.1687e-09  6.1578e-10  4.7157e-12  1.1469e-04  1.7343e-06  1.1590e-01  2.5518e-06  6.7942e-01  4.1302e-06  1.1582e-02  0:21:35 4064
Solution for monitor cl-1 has converged
   937  2.4998e-05  4.1537e-09  6.1169e-10  4.6946e-12  1.1450e-04  1.7293e-06  1.1590e-01  2.5316e-06  6.7943e-01  4.1057e-06  1.1582e-02  0:21:34 4063
Solution for monitor cl-1 has converged
   938  2.4882e-05  4.1388e-09  6.0763e-10  4.6734e-12  1.1431e-04  1.7243e-06  1.1590e-01  2.5115e-06  6.7943e-01  4.0813e-06  1.1582e-02  0:21:32 4062
Solution for monitor cl-1 has converged
   939  2.4776e-05  4.1241e-09  6.0361e-10  4.6526e-12  1.1412e-04  1.7194e-06  1.1590e-01  2.4915e-06  6.7943e-01  4.0571e-06  1.1582e-02  0:21:31 4061
Solution for monitor cl-1 has converged
   940  2.4675e-05  4.1095e-09  5.9962e-10  4.6316e-12  1.1393e-04  1.7145e-06  1.1590e-01  2.4718e-06  6.7943e-01  4.0330e-06  1.1582e-02  0:21:30 4060
Solution for monitor cl-1 has converged
   941  2.4575e-05  4.0951e-09  5.9566e-10  4.6108e-12  1.1374e-04  1.7096e-06  1.1590e-01  2.4522e-06  6.7943e-01  4.0090e-06  1.1582e-02  0:21:29 4059
Solution for monitor cl-1 has converged
   942  2.4477e-05  4.0807e-09  5.9174e-10  4.5900e-12  1.1356e-04  1.7047e-06  1.1590e-01  2.4327e-06  6.7943e-01  3.9850e-06  1.1582e-02  0:21:28 4058
Solution for monitor cl-1 has converged
   943  2.4382e-05  4.0663e-09  5.8784e-10  4.5691e-12  1.1337e-04  1.6998e-06  1.1590e-01  2.4135e-06  6.7944e-01  3.9613e-06  1.1582e-02  0:21:27 4057
Solution for monitor cl-1 has converged
   944  2.4291e-05  4.0521e-09  5.8397e-10  4.5484e-12  1.1319e-04  1.6950e-06  1.1590e-01  2.3943e-06  6.7944e-01  3.9378e-06  1.1582e-02  0:21:26 4056
Solution for monitor cl-1 has converged
   945  2.4205e-05  4.0379e-09  5.8013e-10  4.5279e-12  1.1300e-04  1.6902e-06  1.1590e-01  2.3754e-06  6.7944e-01  3.9146e-06  1.1582e-02  0:21:26 4055
Solution for monitor cl-1 has converged
   946  2.4120e-05  4.0239e-09  5.7632e-10  4.5076e-12  1.1282e-04  1.6854e-06  1.1590e-01  2.3566e-06  6.7944e-01  3.8915e-06  1.1582e-02  0:21:25 4054
Solution for monitor cl-1 has converged
  iter  continuity  x-velocity  y-velocity      energy           k       omega        Cm-1    cl-1-res        Cl-1    cd-1-res        Cd-1     time/iter
   947  2.4038e-05  4.0099e-09  5.7255e-10  4.4872e-12  1.1264e-04  1.6806e-06  1.1590e-01  2.3379e-06  6.7944e-01  3.8685e-06  1.1582e-02  0:21:24 4053
Solution for monitor cl-1 has converged
   948  2.3958e-05  3.9961e-09  5.6879e-10  4.4672e-12  1.1246e-04  1.6759e-06  1.1590e-01  2.3194e-06  6.7944e-01  3.8457e-06  1.1582e-02  0:21:25 4052
Solution for monitor cl-1 has converged
   949  2.3880e-05  3.9824e-09  5.6507e-10  4.4473e-12  1.1228e-04  1.6712e-06  1.1590e-01  2.3011e-06  6.7944e-01  3.8230e-06  1.1582e-02  0:21:24 4051
Solution for monitor cl-1 has converged
   950  2.3804e-05  3.9687e-09  5.6138e-10  4.4276e-12  1.1210e-04  1.6665e-06  1.1590e-01  2.2829e-06  6.7945e-01  3.8005e-06  1.1582e-02  0:21:24 4050
Solution for monitor cl-1 has converged
   951  2.3728e-05  3.9552e-09  5.5771e-10  4.4081e-12  1.1192e-04  1.6618e-06  1.1590e-01  2.2649e-06  6.7945e-01  3.7782e-06  1.1582e-02  0:21:23 4049
Solution for monitor cl-1 has converged
   952  2.3654e-05  3.9418e-09  5.5407e-10  4.3886e-12  1.1174e-04  1.6572e-06  1.1590e-01  2.2469e-06  6.7945e-01  3.7556e-06  1.1582e-02  0:21:23 4048
Solution for monitor cl-1 has converged
   953  2.3581e-05  3.9284e-09  5.5046e-10  4.3694e-12  1.1157e-04  1.6525e-06  1.1590e-01  2.2290e-06  6.7945e-01  3.7329e-06  1.1582e-02  0:21:22 4047
Solution for monitor cl-1 has converged
   954  2.3511e-05  3.9151e-09  5.4688e-10  4.3503e-12  1.1139e-04  1.6479e-06  1.1590e-01  2.2113e-06  6.7945e-01  3.7103e-06  1.1582e-02  0:21:22 4046
Solution for monitor cd-1 has converged
Solution for monitor cl-1 has converged
!  954 solution is converged


> 
adapt/                  file/                   report/
define/                 mesh/                   solve/
display/                parallel/               surface/
exit                    plot/                   views/

> ; Save results
/file/write-case-data "p02.00_sst_res.cas"
Writing "p02.00_sst_res.cas"...
   85088 quadrilateral cells, zone  2, binary.
   85088 cell partition ids, zone  2, 2 partitions, binary.
  169508 2D interior faces, zone  3, binary.
     428 2D wall faces, zone  4, binary.
     316 2D pressure-outlet faces, zone  6, binary.
     592 2D pressure-far-field faces, zone  5, binary.
   85756 nodes, binary.
   85756 node flags, binary.
Done.


Writing "p02.00_sst_res.dat"...
Done.



> 
> Halting due to end of file on input.
